 ****** HSPICE -- D-2010.03-SP1 32-BIT (May 26 2010) winnt ******               
  Copyright (C) 2010 Synopsys, Inc. All Rights Reserved.                        
  Unpublished-rights reserved under US copyright laws.
  This program is protected by law and is subject to the 
  terms and conditions of the license agreement from Synopsys.
  Use of this program is your acceptance to be bound by the 
  license agreement. HSPICE is the trademark of Synopsys, Inc.
  Input File: c:\users\lenovo\desktop\simulation\ac.work\gete ots try.sp        
  lic:  
  lic: FLEXlm: v8.5b 
  lic: USER:   LENOVO               HOSTNAME: LAPTOP-OTMN1855 
  lic: HOSTID: "7c67a241bb02 00ffe66c1cd9 7c67a241bafe 7e67a241bafe 7c67a241baff
 "
  lic: Using FLEXlm license file: 
  lic: 27000@elena 
  lic: Checkout 1 hspice 
  lic: License/Maintenance for hspice will expire on 31-dec-2020/2007.9 
  lic: NODE LOCKED license on hostid "7c67a241bb02 00ffe66c1cd9 7c67a241bafe 7e6
 7
  lic:   
 Init: read install configuration file: D:\hspice\meta.cfg
 scientific notation:
 a=10**-18  f=10**-15  p=10**-12  n=10**-9  u=10**-6
 m=10**-3   k=10**3    x=10**6    g=10**9 
1****** HSPICE -- D-2010.03-SP1 32-BIT (May 26 2010) winnt ******               
 ******  
 nerve circuit

  ******  circuit name directory
 circuit number to circuit name directory
   number circuitname                     definition         multiplier
        0 main circuit
        1 x1.                             ots                1.00 
        2 x2.                             ots                1.00 


 circuit parameter definitions
  parameter          =  value 

     1:alpha1                                                  =   5.9598n      
     1:beta1                                                   =   3.8417       
     1:rtc                                                     =  50.0000       
     1:rbc                                                     =  50.0000       
     1:it                                                      = 845.1400n      
     1:vh                                                      = 549.9990m      
     1:rl                                                      =  10.0000k      
     1:vt                                                      =   1.2240       
     1:vx                                                      = 550.0000m      
     1:ix                                                      =  32.2612n      
     1:cgt                                                     =  10.0000p      
     1:b6                                                      =   1.0000u      
     1:b7                                                      =   1.0000u      
     2:alpha1                                                  =   5.9598n      
     2:beta1                                                   =   3.8417       
     2:rtc                                                     =  50.0000       
     2:rbc                                                     =  50.0000       
     2:it                                                      = 845.1400n      
     2:vh                                                      = 549.9990m      
     2:rl                                                      =  10.0000k      
     2:vt                                                      =   1.2240       
     2:vx                                                      = 550.0000m      
     2:ix                                                      =  32.2612n      
     2:cgt                                                     =  10.0000p      
     2:b6                                                      =   1.0000u      
     2:b7                                                      =   1.0000u      




 constants  - tnom         kt           vt           gapsi        ni
            298.15000    4.1163e-21    25.69184m     1.11562    1.2565e+16 
  **info** (c:\users\lenovo\desktop\simulation\ac.work\gete ots try.sp:28) DC voltage reset to initial transient source value              in source        0:v1                  new dc=  0.0000D+00
1****** HSPICE -- D-2010.03-SP1 32-BIT (May 26 2010) winnt ******               
 ******  
 nerve circuit

  ******  circuit element summary tnom=  25.000 temp=  25.000 *****


 **** resistors

  
 
                                                            
 element name        0:rl1      0:rl2      1:rtc     1:rbc  
 node1               0:1        0:2        0:2       1:gb   
 node2               0:2        0:4        1:gt      0:3    
 model                                                      
 res eff            25.0000k  100.0000k   50.0000   50.0000 
 tc1                 0.         0.         0.        0.     
 tc2                 0.         0.         0.        0.     
 scale               1.0000     1.0000     1.0000    1.0000 
 m                   1.0000     1.0000     1.0000    1.0000 
 ac                 25.0000k  100.0000k   50.0000   50.0000 
 temp               25.0000    25.0000    25.0000   25.0000 
 l                   0.         0.         0.        0.     
 w                   0.         0.         0.        0.     
 cap                 0.         0.         0.        0.     
 noise            1.000e+00  1.000e+00  1.000e+00 1.000e+00 
  
 
                                      
 element name        2:rtc     2:rbc  
 node1               0:4       2:gb   
 node2               2:gt      0:5    
 model                                
 res eff            50.0000   50.0000 
 tc1                 0.        0.     
 tc2                 0.        0.     
 scale               1.0000    1.0000 
 m                   1.0000    1.0000 
 ac                 50.0000   50.0000 
 temp               25.0000   25.0000 
 l                   0.        0.     
 w                   0.        0.     
 cap                 0.        0.     
 noise            1.000e+00 1.000e+00 


 **** capacitors
  
 
                                                              
 element name        0:c1       0:c2       1:c1       2:c1    
 node1               0:2        0:4        1:gt       2:gt    
 node2               0:0        0:0        1:gb       2:gb    
 model                                                        
 cap eff            10.0000n    1.0000n   10.0000p   10.0000p 
 tc1                 0.         0.         0.         0.      
 tc2                 0.         0.         0.         0.      
 scale               1.0000     1.0000     1.0000     1.0000  
 ic                  0.         0.         0.         0.      
 m                   1.0000     1.0000     1.0000     1.0000  
 w                   0.         0.         0.         0.      
 l                   0.         0.         0.         0.      
 temp               25.0000    25.0000    25.0000    25.0000  


 **** voltage-controlled current sources
      name        +             -          dimension  function  multiplier
        1:gg              1:gt              1:gb             3      poly       1.    
        2:gg              2:gt              2:gb             3      poly       1.    


 **** independent sources

     name         node1        node2      dc volt    ac mag    ac phase    type
  v1  1                 0                    0.         0.         0.      pulse
             initial value     0.     
             pulsed value.     3.0000 
             delay time...   300.0000u
             risetime.....    20.0000n
             falltime.....    20.0000n
             width........   200.0000u
             period.......     1.0000m

  v2  0                 3                    1.2240     0.         0.      dc   
  v3  5                 0                    1.2240     0.         0.      dc   


 **** subcircuit calls
    name        subcircuit         external nodes


         0:x1       ots             0:2           0:3       
         0:x2       ots             0:4           0:5       
 
1****** HSPICE -- D-2010.03-SP1 32-BIT (May 26 2010) winnt ******               
 ******  
 nerve circuit

  ******  element node table
                                                                                      
 0                c1               c2               v1               v2               
                  v3                                                                  
 1                rl1              v1                                                 
 2                rl1              rl2              x1.rtc           c1               
                  ic2                                                                 
 3                x1.rbc           v2                                                 
 4                rl2              x2.rtc           c2               ic1              
 5                x2.rbc           v3                                                 
 x1.gb            x1.rbc           x1.c1            x1.gg            x1.gg:-          
                  x1.gg:-          x1.gg:-                                            
 x1.gt            x1.rtc           x1.c1            x1.gg            x1.gg:+          
                  x1.gg:+          x1.gg:+                                            
 x2.gb            x2.rbc           x2.c1            x2.gg            x2.gg:-          
                  x2.gg:-          x2.gg:-                                            
 x2.gt            x2.rtc           x2.c1            x2.gg            x2.gg:+          
                  x2.gg:+          x2.gg:+                                            
 *****************************************************************
 ******  option summary
 ******
 runlvl  = 3         bypass  = 2         
  Opening plot unit= 79
 file=c:\users\lenovo\desktop\simulation\ac.work\gete ots try.pa0              

1****** HSPICE -- D-2010.03-SP1 32-BIT (May 26 2010) winnt ******               
 ******  
 nerve circuit

  ******  operating point information tnom=  25.000 temp=  25.000 *****
 ***** operating point status is voltage   simulation time is     0.     
    node    =voltage      node    =voltage      node    =voltage

 +0:1       =   0.      0:2       =-199.9999m 0:3       =  -1.2240 
 +0:4       = 200.0000m 0:5       =   1.2240  1:gb      =  -1.2240 
 +1:gt      =-200.0155m 2:gb      =   1.2240  2:gt      = 200.0156m

 ******  
 nerve circuit

  ******  transient analysis tnom=  25.000 temp=  25.000 *****
x

        time    voltage      voltage      current      current    
                     4            2           rl1          rl2    
    0.          200.0000m   -199.9999m      8.0000u     -4.0000u  
    1.00000u    196.3819m   -198.8384m      7.9535u     -3.9522u  
    2.00000u    192.8387m   -197.6904m      7.9076u     -3.9053u  
    3.00000u    189.3217m   -196.5473m      7.8619u     -3.8587u  
    4.00000u    185.8417m   -195.4109m      7.8164u     -3.8125u  
    5.00000u    182.5894m   -194.3162m      7.7726u     -3.7691u  
    6.00000u    179.3371m   -193.2215m      7.7289u     -3.7256u  
    7.00000u    176.0848m   -192.1267m      7.6851u     -3.6821u  
    8.00000u    172.8325m   -191.0320m      7.6413u     -3.6386u  
    9.00000u    169.5802m   -189.9373m      7.5975u     -3.5952u  
   10.00000u    166.3280m   -188.8426m      7.5537u     -3.5517u  
   11.00000u    163.0757m   -187.7478m      7.5099u     -3.5082u  
   12.00000u    159.8234m   -186.6531m      7.4661u     -3.4648u  
   13.00000u    157.2549m   -185.6859m      7.4274u     -3.4294u  
   14.00000u    154.7238m   -184.7258m      7.3890u     -3.3945u  
   15.00000u    152.1928m   -183.7656m      7.3506u     -3.3596u  
   16.00000u    149.6618m   -182.8054m      7.3122u     -3.3247u  
   17.00000u    147.1307m   -181.8452m      7.2738u     -3.2898u  
   18.00000u    144.5997m   -180.8850m      7.2354u     -3.2548u  
   19.00000u    142.0686m   -179.9248m      7.1970u     -3.2199u  
   20.00000u    139.5376m   -178.9647m      7.1586u     -3.1850u  
   21.00000u    137.0066m   -178.0045m      7.1202u     -3.1501u  
   22.00000u    134.4755m   -177.0443m      7.0818u     -3.1152u  
   23.00000u    131.9445m   -176.0841m      7.0434u     -3.0803u  
   24.00000u    129.4135m   -175.1239m      7.0050u     -3.0454u  
   25.00000u    126.8824m   -174.1638m      6.9666u     -3.0105u  
   26.00000u    124.3514m   -173.2036m      6.9281u     -2.9755u  
   27.00000u    121.8204m   -172.2434m      6.8897u     -2.9406u  
   28.00000u    119.2893m   -171.2832m      6.8513u     -2.9057u  
   29.00000u    116.7583m   -170.3230m      6.8129u     -2.8708u  
   30.00000u    114.2272m   -169.3629m      6.7745u     -2.8359u  
   31.00000u    111.6962m   -168.4027m      6.7361u     -2.8010u  
   32.00000u    109.1652m   -167.4425m      6.6977u     -2.7661u  
   33.00000u    106.6341m   -166.4823m      6.6593u     -2.7312u  
   34.00000u    104.1031m   -165.5221m      6.6209u     -2.6963u  
   35.00000u    101.5721m   -164.5619m      6.5825u     -2.6613u  
   36.00000u     99.0410m   -163.6018m      6.5441u     -2.6264u  
   37.00000u     96.5100m   -162.6416m      6.5057u     -2.5915u  
   38.00000u     93.9790m   -161.6814m      6.4673u     -2.5566u  
   39.00000u     92.3396m   -160.9001m      6.4360u     -2.5324u  
   40.00000u     91.0241m   -160.1838m      6.4074u     -2.5121u  
   41.00000u     89.7085m   -159.4675m      6.3787u     -2.4918u  
   42.00000u     88.3930m   -158.7512m      6.3500u     -2.4714u  
   43.00000u     87.0775m   -158.0350m      6.3214u     -2.4511u  
   44.00000u     85.7619m   -157.3187m      6.2927u     -2.4308u  
   45.00000u     84.4464m   -156.6024m      6.2641u     -2.4105u  
   46.00000u     83.1308m   -155.8861m      6.2354u     -2.3902u  
   47.00000u     81.8153m   -155.1698m      6.2068u     -2.3699u  
   48.00000u     80.4998m   -154.4535m      6.1781u     -2.3495u  
   49.00000u     79.1842m   -153.7372m      6.1495u     -2.3292u  
   50.00000u     77.8687m   -153.0209m      6.1208u     -2.3089u  
   51.00000u     76.5532m   -152.3046m      6.0922u     -2.2886u  
   52.00000u     75.2376m   -151.5883m      6.0635u     -2.2683u  
   53.00000u     73.9221m   -150.8720m      6.0349u     -2.2479u  
   54.00000u     72.6065m   -150.1557m      6.0062u     -2.2276u  
   55.00000u     71.2910m   -149.4394m      5.9776u     -2.2073u  
   56.00000u     69.9755m   -148.7231m      5.9489u     -2.1870u  
   57.00000u     68.6599m   -148.0068m      5.9203u     -2.1667u  
   58.00000u     67.3444m   -147.2905m      5.8916u     -2.1463u  
   59.00000u     66.0289m   -146.5742m      5.8630u     -2.1260u  
   60.00000u     64.7133m   -145.8579m      5.8343u     -2.1057u  
   61.00000u     63.3978m   -145.1416m      5.8057u     -2.0854u  
   62.00000u     62.0822m   -144.4253m      5.7770u     -2.0651u  
   63.00000u     60.7667m   -143.7090m      5.7484u     -2.0448u  
   64.00000u     59.4512m   -142.9927m      5.7197u     -2.0244u  
   65.00000u     58.1356m   -142.2764m      5.6911u     -2.0041u  
   66.00000u     56.8201m   -141.5601m      5.6624u     -1.9838u  
   67.00000u     55.5046m   -140.8438m      5.6338u     -1.9635u  
   68.00000u     54.1890m   -140.1276m      5.6051u     -1.9432u  
   69.00000u     52.8735m   -139.4113m      5.5765u     -1.9228u  
   70.00000u     51.5580m   -138.6950m      5.5478u     -1.9025u  
   71.00000u     50.2424m   -137.9787m      5.5191u     -1.8822u  
   72.00000u     48.9269m   -137.2624m      5.4905u     -1.8619u  
   73.00000u     47.6113m   -136.5461m      5.4618u     -1.8416u  
   74.00000u     46.2958m   -135.8298m      5.4332u     -1.8213u  
   75.00000u     44.9803m   -135.1135m      5.4045u     -1.8009u  
   76.00000u     43.6647m   -134.3972m      5.3759u     -1.7806u  
   77.00000u     42.3492m   -133.6809m      5.3472u     -1.7603u  
   78.00000u     41.0337m   -132.9646m      5.3186u     -1.7400u  
   79.00000u     39.7181m   -132.2483m      5.2899u     -1.7197u  
   80.00000u     38.4026m   -131.5320m      5.2613u     -1.6993u  
   81.00000u     37.0870m   -130.8157m      5.2326u     -1.6790u  
   82.00000u     35.7715m   -130.0994m      5.2040u     -1.6587u  
   83.00000u     34.4560m   -129.3831m      5.1753u     -1.6384u  
   84.00000u     33.1404m   -128.6668m      5.1467u     -1.6181u  
   85.00000u     31.8249m   -127.9505m      5.1180u     -1.5978u  
   86.00000u     30.5094m   -127.2342m      5.0894u     -1.5774u  
   87.00000u     29.1938m   -126.5179m      5.0607u     -1.5571u  
   88.00000u     27.8783m   -125.8016m      5.0321u     -1.5368u  
   89.00000u     26.5627m   -125.0853m      5.0034u     -1.5165u  
   90.00000u     25.2472m   -124.3690m      4.9748u     -1.4962u  
   91.00000u     23.9317m   -123.6527m      4.9461u     -1.4758u  
   92.00000u     22.6161m   -122.9364m      4.9175u     -1.4555u  
   93.00000u     21.3006m   -122.2202m      4.8888u     -1.4352u  
   94.00000u     19.9851m   -121.5039m      4.8602u     -1.4149u  
   95.00000u     18.6695m   -120.7876m      4.8315u     -1.3946u  
   96.00000u     17.3540m   -120.0713m      4.8029u     -1.3743u  
   97.00000u     16.7293m   -119.5086m      4.7803u     -1.3624u  
   98.00000u     16.2535m   -118.9790m      4.7592u     -1.3523u  
   99.00000u     15.7778m   -118.4494m      4.7380u     -1.3423u  
  100.00000u     15.3021m   -117.9198m      4.7168u     -1.3322u  
  101.00000u     14.8264m   -117.3902m      4.6956u     -1.3222u  
  102.00000u     14.3507m   -116.8607m      4.6744u     -1.3121u  
  103.00000u     13.8750m   -116.3311m      4.6532u     -1.3021u  
  104.00000u     13.3993m   -115.8015m      4.6321u     -1.2920u  
  105.00000u     12.9236m   -115.2719m      4.6109u     -1.2820u  
  106.00000u     12.4479m   -114.7423m      4.5897u     -1.2719u  
  107.00000u     11.9722m   -114.2128m      4.5685u     -1.2618u  
  108.00000u     11.4964m   -113.6832m      4.5473u     -1.2518u  
  109.00000u     11.0412m   -113.1598m      4.5264u     -1.2420u  
  110.00000u     10.6874m   -112.6672m      4.5067u     -1.2335u  
  111.00000u     10.3337m   -112.1746m      4.4870u     -1.2251u  
  112.00000u      9.9800m   -111.6820m      4.4673u     -1.2166u  
  113.00000u      9.6263m   -111.1894m      4.4476u     -1.2082u  
  114.00000u      9.2725m   -110.6968m      4.4279u     -1.1997u  
  115.00000u      8.9188m   -110.2042m      4.4082u     -1.1912u  
  116.00000u      8.5651m   -109.7116m      4.3885u     -1.1828u  
  117.00000u      8.2114m   -109.2190m      4.3688u     -1.1743u  
  118.00000u      7.8576m   -108.7265m      4.3491u     -1.1658u  
  119.00000u      7.5039m   -108.2339m      4.3294u     -1.1574u  
  120.00000u      7.1502m   -107.7413m      4.3097u     -1.1489u  
  121.00000u      6.7965m   -107.2487m      4.2899u     -1.1405u  
  122.00000u      6.4427m   -106.7561m      4.2702u     -1.1320u  
  123.00000u      6.0890m   -106.2635m      4.2505u     -1.1235u  
  124.00000u      5.7353m   -105.7709m      4.2308u     -1.1151u  
  125.00000u      5.3816m   -105.2783m      4.2111u     -1.1066u  
  126.00000u      5.0278m   -104.7857m      4.1914u     -1.0981u  
  127.00000u      4.6741m   -104.2931m      4.1717u     -1.0897u  
  128.00000u      4.3204m   -103.8005m      4.1520u     -1.0812u  
  129.00000u      3.9667m   -103.3079m      4.1323u     -1.0727u  
  130.00000u      3.6129m   -102.8154m      4.1126u     -1.0643u  
  131.00000u      3.2592m   -102.3228m      4.0929u     -1.0558u  
  132.00000u      2.9055m   -101.8302m      4.0732u     -1.0474u  
  133.00000u      2.5518m   -101.3376m      4.0535u     -1.0389u  
  134.00000u      2.1980m   -100.8450m      4.0338u     -1.0304u  
  135.00000u      2.0354m   -100.4171m      4.0167u     -1.0245u  
  136.00000u      1.8951m    -99.9968m      3.9999u     -1.0189u  
  137.00000u      1.7549m    -99.5765m      3.9831u     -1.0133u  
  138.00000u      1.6146m    -99.1562m      3.9662u     -1.0077u  
  139.00000u      1.4744m    -98.7359m      3.9494u     -1.0021u  
  140.00000u      1.3341m    -98.3156m      3.9326u   -996.4973n  
  141.00000u      1.1939m    -97.8953m      3.9158u   -990.8919n  
  142.00000u      1.0536m    -97.4750m      3.8990u   -985.2865n  
  143.00000u    913.3971u    -97.0547m      3.8822u   -979.6810n  
  144.00000u    773.1526u    -96.6344m      3.8654u   -974.0756n  
  145.00000u    632.9082u    -96.2141m      3.8486u   -968.4702n  
  146.00000u    492.6638u    -95.7938m      3.8318u   -962.8648n  
  147.00000u    352.4193u    -95.3735m      3.8149u   -957.2594n  
  148.00000u    212.1749u    -94.9532m      3.7981u   -951.6539n  
  149.00000u     71.9305u    -94.5329m      3.7813u   -946.0485n  
  150.00000u     -2.7008u    -94.1421m      3.7657u   -941.3945n  
  151.00000u    -61.8893u    -93.7583m      3.7503u   -936.9643n  
  152.00000u   -121.0777u    -93.3745m      3.7350u   -932.5342n  
  153.00000u   -180.2661u    -92.9907m      3.7196u   -928.1040n  
  154.00000u   -239.4545u    -92.6068m      3.7043u   -923.6739n  
  155.00000u   -298.6429u    -92.2230m      3.6889u   -919.2438n  
  156.00000u   -357.8314u    -91.8392m      3.6736u   -914.8136n  
  157.00000u   -417.0198u    -91.4554m      3.6582u   -910.3835n  
  158.00000u   -476.2082u    -91.0715m      3.6429u   -905.9533n  
  159.00000u   -535.3966u    -90.6877m      3.6275u   -901.5232n  
  160.00000u   -594.5850u    -90.3039m      3.6122u   -897.0930n  
  161.00000u   -653.7735u    -89.9201m      3.5968u   -892.6629n  
  162.00000u   -712.9619u    -89.5362m      3.5814u   -888.2328n  
  163.00000u   -772.1503u    -89.1524m      3.5661u   -883.8026n  
  164.00000u   -831.3387u    -88.7686m      3.5507u   -879.3725n  
  165.00000u   -890.5272u    -88.3848m      3.5354u   -874.9423n  
  166.00000u   -949.7156u    -88.0009m      3.5200u   -870.5122n  
  167.00000u     -1.0089m    -87.6171m      3.5047u   -866.0821n  
  168.00000u     -1.0681m    -87.2333m      3.4893u   -861.6519n  
  169.00000u     -1.1273m    -86.8495m      3.4740u   -857.2218n  
  170.00000u     -1.1865m    -86.4656m      3.4586u   -852.7916n  
  171.00000u     -1.2457m    -86.0818m      3.4433u   -848.3615n  
  172.00000u     -1.3048m    -85.6980m      3.4279u   -843.9314n  
  173.00000u     -1.3640m    -85.3142m      3.4126u   -839.5012n  
  174.00000u     -1.4232m    -84.9303m      3.3972u   -835.0711n  
  175.00000u     -1.4824m    -84.5465m      3.3819u   -830.6409n  
  176.00000u     -1.5416m    -84.1627m      3.3665u   -826.2108n  
  177.00000u     -1.6008m    -83.7789m      3.3512u   -821.7806n  
  178.00000u     -1.6600m    -83.3950m      3.3358u   -817.3505n  
  179.00000u     -1.7192m    -83.0112m      3.3204u   -812.9204n  
  180.00000u     -1.7784m    -82.6274m      3.3051u   -808.4902n  
  181.00000u     -1.8375m    -82.2436m      3.2897u   -804.0601n  
  182.00000u     -1.8967m    -81.8597m      3.2744u   -799.6299n  
  183.00000u     -1.9559m    -81.4759m      3.2590u   -795.1998n  
  184.00000u     -2.0151m    -81.0921m      3.2437u   -790.7697n  
  185.00000u     -1.9865m    -80.7615m      3.2305u   -787.7506n  
  186.00000u     -1.9036m    -80.4640m      3.2186u   -785.6035n  
  187.00000u     -1.8207m    -80.1664m      3.2067u   -783.4563n  
  188.00000u     -1.7379m    -79.8688m      3.1948u   -781.3091n  
  189.00000u     -1.6550m    -79.5712m      3.1828u   -779.1620n  
  190.00000u     -1.5721m    -79.2736m      3.1709u   -777.0148n  
  191.00000u     -1.4892m    -78.9760m      3.1590u   -774.8677n  
  192.00000u     -1.4064m    -78.6784m      3.1471u   -772.7205n  
  193.00000u     -1.3235m    -78.3808m      3.1352u   -770.5733n  
  194.00000u     -1.2406m    -78.0832m      3.1233u   -768.4262n  
  195.00000u     -1.1577m    -77.7856m      3.1114u   -766.2790n  
  196.00000u     -1.0748m    -77.4880m      3.0995u   -764.1318n  
  197.00000u   -991.9686u    -77.1904m      3.0876u   -761.9847n  
  198.00000u   -909.0922u    -76.8928m      3.0757u   -759.8375n  
  199.00000u   -826.2159u    -76.5953m      3.0638u   -757.6904n  
  200.00000u   -743.3395u    -76.2977m      3.0519u   -755.5432n  
  201.00000u   -660.4632u    -76.0001m      3.0400u   -753.3960n  
  202.00000u   -577.5868u    -75.7025m      3.0281u   -751.2489n  
  203.00000u   -494.7105u    -75.4049m      3.0162u   -749.1017n  
  204.00000u   -411.8341u    -75.1073m      3.0043u   -746.9545n  
  205.00000u   -328.9578u    -74.8097m      2.9924u   -744.8074n  
  206.00000u   -246.0814u    -74.5121m      2.9805u   -742.6602n  
  207.00000u   -163.2051u    -74.2145m      2.9686u   -740.5131n  
  208.00000u    -80.3287u    -73.9169m      2.9567u   -738.3659n  
  209.00000u      2.5476u    -73.6193m      2.9448u   -736.2187n  
  210.00000u     85.4240u    -73.3217m      2.9329u   -734.0716n  
  211.00000u    168.3003u    -73.0241m      2.9210u   -731.9244n  
  212.00000u    251.1767u    -72.7265m      2.9091u   -729.7772n  
  213.00000u    334.0530u    -72.4290m      2.8972u   -727.6301n  
  214.00000u    416.9294u    -72.1314m      2.8853u   -725.4829n  
  215.00000u    499.8057u    -71.8338m      2.8734u   -723.3357n  
  216.00000u    582.6821u    -71.5362m      2.8614u   -721.1886n  
  217.00000u    665.5584u    -71.2386m      2.8495u   -719.0414n  
  218.00000u    748.4348u    -70.9410m      2.8376u   -716.8943n  
  219.00000u    831.3111u    -70.6434m      2.8257u   -714.7471n  
  220.00000u    914.1875u    -70.3458m      2.8138u   -712.5999n  
  221.00000u    997.0638u    -70.0482m      2.8019u   -710.4528n  
  222.00000u      1.0799m    -69.7506m      2.7900u   -708.3056n  
  223.00000u      1.1628m    -69.4530m      2.7781u   -706.1584n  
  224.00000u      1.2457m    -69.1554m      2.7662u   -704.0113n  
  225.00000u      1.3286m    -68.8578m      2.7543u   -701.8641n  
  226.00000u      1.4114m    -68.5603m      2.7424u   -699.7170n  
  227.00000u      1.4943m    -68.2627m      2.7305u   -697.5698n  
  228.00000u      1.5772m    -67.9651m      2.7186u   -695.4226n  
  229.00000u      1.6601m    -67.6675m      2.7067u   -693.2755n  
  230.00000u      1.7430m    -67.3699m      2.6948u   -691.1283n  
  231.00000u      1.8258m    -67.0723m      2.6829u   -688.9811n  
  232.00000u      1.9087m    -66.7747m      2.6710u   -686.8340n  
  233.00000u      1.9916m    -66.4771m      2.6591u   -684.6868n  
  234.00000u      2.0745m    -66.1795m      2.6472u   -682.5397n  
  235.00000u      2.1573m    -65.8819m      2.6353u   -680.3925n  
  236.00000u      2.2402m    -65.5843m      2.6234u   -678.2453n  
  237.00000u      2.3231m    -65.2867m      2.6115u   -676.0982n  
  238.00000u      2.4060m    -64.9891m      2.5996u   -673.9510n  
  239.00000u      2.4888m    -64.6915m      2.5877u   -671.8038n  
  240.00000u      2.5717m    -64.3940m      2.5758u   -669.6567n  
  241.00000u      2.6546m    -64.0964m      2.5639u   -667.5095n  
  242.00000u      2.7375m    -63.7988m      2.5520u   -665.3623n  
  243.00000u      2.8203m    -63.5012m      2.5400u   -663.2152n  
  244.00000u      2.9032m    -63.2036m      2.5281u   -661.0680n  
  245.00000u      2.9861m    -62.9060m      2.5162u   -658.9209n  
  246.00000u      3.0690m    -62.6084m      2.5043u   -656.7737n  
  247.00000u      3.1518m    -62.3108m      2.4924u   -654.6265n  
  248.00000u      3.2347m    -62.0132m      2.4805u   -652.4794n  
  249.00000u      3.3176m    -61.7156m      2.4686u   -650.3322n  
  250.00000u      3.4005m    -61.4180m      2.4567u   -648.1850n  
  251.00000u      3.4834m    -61.1204m      2.4448u   -646.0379n  
  252.00000u      3.6039m    -60.8656m      2.4346u   -644.6942n  
  253.00000u      3.7526m    -60.6427m      2.4257u   -643.9532n  
  254.00000u      3.9013m    -60.4199m      2.4168u   -643.2123n  
  255.00000u      4.0501m    -60.1970m      2.4079u   -642.4713n  
  256.00000u      4.1988m    -59.9742m      2.3990u   -641.7304n  
  257.00000u      4.3476m    -59.7514m      2.3901u   -640.9895n  
  258.00000u      4.4963m    -59.5285m      2.3811u   -640.2485n  
  259.00000u      4.6451m    -59.3057m      2.3722u   -639.5076n  
  260.00000u      4.7938m    -59.0829m      2.3633u   -638.7667n  
  261.00000u      4.9425m    -58.8600m      2.3544u   -638.0257n  
  262.00000u      5.0913m    -58.6372m      2.3455u   -637.2848n  
  263.00000u      5.2400m    -58.4144m      2.3366u   -636.5439n  
  264.00000u      5.3888m    -58.1915m      2.3277u   -635.8029n  
  265.00000u      5.5375m    -57.9687m      2.3187u   -635.0620n  
  266.00000u      5.6862m    -57.7459m      2.3098u   -634.3210n  
  267.00000u      5.8350m    -57.5230m      2.3009u   -633.5801n  
  268.00000u      5.9837m    -57.3002m      2.2920u   -632.8392n  
  269.00000u      6.1325m    -57.0774m      2.2831u   -632.0982n  
  270.00000u      6.2812m    -56.8545m      2.2742u   -631.3573n  
  271.00000u      6.4300m    -56.6317m      2.2653u   -630.6164n  
  272.00000u      6.5787m    -56.4088m      2.2564u   -629.8754n  
  273.00000u      6.7274m    -56.1860m      2.2474u   -629.1345n  
  274.00000u      6.8762m    -55.9632m      2.2385u   -628.3935n  
  275.00000u      7.0249m    -55.7403m      2.2296u   -627.6526n  
  276.00000u      7.1737m    -55.5175m      2.2207u   -626.9117n  
  277.00000u      7.3224m    -55.2947m      2.2118u   -626.1707n  
  278.00000u      7.4711m    -55.0718m      2.2029u   -625.4298n  
  279.00000u      7.6199m    -54.8490m      2.1940u   -624.6889n  
  280.00000u      7.7686m    -54.6262m      2.1850u   -623.9479n  
  281.00000u      7.9174m    -54.4033m      2.1761u   -623.2070n  
  282.00000u      8.0661m    -54.1805m      2.1672u   -622.4661n  
  283.00000u      8.2149m    -53.9577m      2.1583u   -621.7251n  
  284.00000u      8.3636m    -53.7348m      2.1494u   -620.9842n  
  285.00000u      8.5123m    -53.5120m      2.1405u   -620.2432n  
  286.00000u      8.6611m    -53.2892m      2.1316u   -619.5023n  
  287.00000u      8.8098m    -53.0663m      2.1227u   -618.7614n  
  288.00000u      8.9586m    -52.8435m      2.1137u   -618.0204n  
  289.00000u      9.1073m    -52.6206m      2.1048u   -617.2795n  
  290.00000u      9.2560m    -52.3978m      2.0959u   -616.5386n  
  291.00000u      9.4048m    -52.1750m      2.0870u   -615.7976n  
  292.00000u      9.5535m    -51.9521m      2.0781u   -615.0567n  
  293.00000u      9.7023m    -51.7293m      2.0692u   -614.3157n  
  294.00000u      9.8510m    -51.5065m      2.0603u   -613.5748n  
  295.00000u      9.9998m    -51.2836m      2.0513u   -612.8339n  
  296.00000u     10.1485m    -51.0608m      2.0424u   -612.0929n  
  297.00000u     10.2972m    -50.8380m      2.0335u   -611.3520n  
  298.00000u     10.4460m    -50.6151m      2.0246u   -610.6111n  
  299.00000u     10.5947m    -50.3923m      2.0157u   -609.8701n  
  300.00000u     10.7435m    -50.1695m      2.0068u   -609.1292n  
  301.00000u     10.9745m    -38.1159m    121.5246u   -490.9040n  
  302.00000u     11.2916m    -27.8544m    121.1142u   -391.4597n  
  303.00000u     11.7066m    -24.5056m    120.9802u   -362.1213n  
  304.00000u     12.1216m    -21.1567m    120.8463u   -332.7829n  
  305.00000u     12.5366m    -17.8079m    120.7123u   -303.4445n  
  306.00000u     12.9175m    -17.2121m    120.6885u   -301.2960n  
  307.00000u     13.2273m    -22.3689m    120.8948u   -355.9621n  
  308.00000u     13.5372m    -27.5257m    121.1010u   -410.6283n  
  309.00000u     13.8470m    -32.6824m    121.3073u   -465.2944n  
  310.00000u     14.1568m    -37.8392m    121.5136u   -519.9605n  
  311.00000u     14.4667m    -42.9960m    121.7198u   -574.6266n  
  312.00000u     14.5835m    -47.8659m    121.9146u   -624.4940n  
  313.00000u     14.5553m    -52.5204m    122.1008u   -670.7563n  
  314.00000u     14.5271m    -57.1748m    122.2870u   -717.0186n  
  315.00000u     14.4989m    -61.8292m    122.4732u   -763.2808n  
  316.00000u     14.4707m    -66.4836m    122.6593u   -809.5431n  
  317.00000u     14.4425m    -71.1381m    122.8455u   -855.8054n  
  318.00000u     14.4143m    -75.7925m    123.0317u   -902.0677n  
  319.00000u     14.3861m    -80.4469m    123.2179u   -948.3299n  
  320.00000u     14.0989m    -84.6770m    123.3871u   -987.7583n  
  321.00000u     13.7146m    -88.7480m    123.5499u     -1.0246u  
  322.00000u     13.3304m    -92.8190m    123.7128u     -1.0615u  
  323.00000u     12.9462m    -96.8900m    123.8756u     -1.0984u  
  324.00000u     12.5620m   -100.9610m    124.0384u     -1.1352u  
  325.00000u     12.1778m   -105.0320m    124.2013u     -1.1721u  
  326.00000u     11.7936m   -109.1030m    124.3641u     -1.2090u  
  327.00000u     11.4093m   -113.1740m    124.5270u     -1.2458u  
  328.00000u     11.0251m   -117.2450m    124.6898u     -1.2827u  
  329.00000u     10.6409m   -121.3160m    124.8526u     -1.3196u  
  330.00000u     10.0125m   -124.9108m    124.9964u     -1.3492u  
  331.00000u      9.2648m   -128.2731m    125.1309u     -1.3754u  
  332.00000u      8.5171m   -131.6354m    125.2654u     -1.4015u  
  333.00000u      7.7694m   -134.9976m    125.3999u     -1.4277u  
  334.00000u      7.0217m   -138.3599m    125.5344u     -1.4538u  
  335.00000u      6.2740m   -141.7222m    125.6689u     -1.4800u  
  336.00000u      5.5263m   -145.0845m    125.8034u     -1.5061u  
  337.00000u      4.7786m   -148.4468m    125.9379u     -1.5323u  
  338.00000u      3.9395m   -151.5777m    126.0631u     -1.5552u  
  339.00000u      3.0462m   -154.5714m    126.1829u     -1.5762u  
  340.00000u      2.1528m   -157.5651m    126.3026u     -1.5972u  
  341.00000u      1.2595m   -160.5588m    126.4224u     -1.6182u  
  342.00000u    366.1059u   -163.5524m    126.5421u     -1.6392u  
  343.00000u   -527.2535u   -166.5461m    126.6618u     -1.6602u  
  344.00000u     -1.4206m   -169.5398m    126.7816u     -1.6812u  
  345.00000u     -2.3140m   -172.5335m    126.9013u     -1.7022u  
  346.00000u     -3.2073m   -175.5271m    127.0211u     -1.7232u  
  347.00000u     -4.1007m   -178.5208m    127.1408u     -1.7442u  
  348.00000u     -4.9941m   -181.5145m    127.2606u     -1.7652u  
  349.00000u     -5.8874m   -184.5082m    127.3803u     -1.7862u  
  350.00000u     -6.7808m   -187.5019m    127.5001u     -1.8072u  
  351.00000u     -7.6741m   -190.4955m    127.6198u     -1.8282u  
  352.00000u     -8.5675m   -193.4892m    127.7396u     -1.8492u  
  353.00000u     -9.4608m   -196.4829m    127.8593u     -1.8702u  
  354.00000u    -10.3542m   -199.4766m    127.9791u     -1.8912u  
  355.00000u    119.2848m   -201.7823m    128.0713u     -3.2107u  
  356.00000u    259.6807m   -204.0314m    128.1613u     -4.6371u  
  357.00000u    392.4761m   -206.1927m    128.2477u     -5.9867u  
  358.00000u    496.8554m   -208.2215m    128.3289u     -7.0508u  
  359.00000u    552.4110m   -210.0528m    128.4021u     -7.6246u  
  360.00000u    607.9666m   -211.8841m    128.4754u     -8.1985u  
  361.00000u    663.5222m   -213.7154m    128.5486u     -8.7724u  
  362.00000u    719.0778m   -215.5466m    128.6219u     -9.3462u  
  363.00000u    721.6264m   -217.1998m    128.6880u     -9.3883u  
  364.00000u    712.4390m   -218.8135m    128.7525u     -9.3125u  
  365.00000u    703.2516m   -220.4272m    128.8171u     -9.2368u  
  366.00000u    694.0642m   -222.0410m    128.8816u     -9.1611u  
  367.00000u    685.1780m   -223.5956m    128.9438u     -9.0877u  
  368.00000u    676.3312m   -225.1425m    129.0057u     -9.0147u  
  369.00000u    667.4843m   -226.6894m    129.0676u     -8.9417u  
  370.00000u    658.6375m   -228.2363m    129.1295u     -8.8687u  
  371.00000u    649.7906m   -229.7832m    129.1913u     -8.7957u  
  372.00000u    641.2043m   -231.2795m    129.2512u     -8.7248u  
  373.00000u    632.7269m   -232.7548m    129.3102u     -8.6548u  
  374.00000u    624.2495m   -234.2300m    129.3692u     -8.5848u  
  375.00000u    615.7721m   -235.7053m    129.4282u     -8.5148u  
  376.00000u    607.2947m   -237.1805m    129.4872u     -8.4448u  
  377.00000u    599.2918m   -238.5662m    129.5426u     -8.3786u  
  378.00000u    591.5245m   -239.9075m    129.5963u     -8.3143u  
  379.00000u    583.7573m   -241.2488m    129.6500u     -8.2501u  
  380.00000u    575.9901m   -242.5900m    129.7036u     -8.1858u  
  381.00000u    568.2229m   -243.9313m    129.7573u     -8.1215u  
  382.00000u    560.4556m   -245.2726m    129.8109u     -8.0573u  
  383.00000u    552.6884m   -246.6138m    129.8646u     -7.9930u  
  384.00000u    544.9212m   -247.9551m    129.9182u     -7.9288u  
  385.00000u    537.1540m   -249.2964m    129.9719u     -7.8645u  
  386.00000u    529.3867m   -250.6376m    130.0255u     -7.8002u  
  387.00000u    521.6195m   -251.9789m    130.0792u     -7.7360u  
  388.00000u    513.8523m   -253.3202m    130.1328u     -7.6717u  
  389.00000u    506.0851m   -254.6614m    130.1865u     -7.6075u  
  390.00000u    498.3178m   -256.0027m    130.2401u     -7.5432u  
  391.00000u    490.5506m   -257.3440m    130.2938u     -7.4789u  
  392.00000u    482.7834m   -258.6853m    130.3474u     -7.4147u  
  393.00000u    476.0635m   -259.8415m    130.3937u     -7.3591u  
  394.00000u    470.2019m   -260.8461m    130.4338u     -7.3105u  
  395.00000u    464.3403m   -261.8508m    130.4740u     -7.2619u  
  396.00000u    458.4788m   -262.8554m    130.5142u     -7.2133u  
  397.00000u    452.6172m   -263.8600m    130.5544u     -7.1648u  
  398.00000u    446.7556m   -264.8647m    130.5946u     -7.1162u  
  399.00000u    440.8940m   -265.8693m    130.6348u     -7.0676u  
  400.00000u    435.0324m   -266.8739m    130.6750u     -7.0191u  
  401.00000u    429.1708m   -267.8785m    130.7151u     -6.9705u  
  402.00000u    423.3093m   -268.8832m    130.7553u     -6.9219u  
  403.00000u    417.4477m   -269.8878m    130.7955u     -6.8734u  
  404.00000u    411.5861m   -270.8924m    130.8357u     -6.8248u  
  405.00000u    405.7245m   -271.8971m    130.8759u     -6.7762u  
  406.00000u    399.8629m   -272.9017m    130.9161u     -6.7276u  
  407.00000u    394.0014m   -273.9063m    130.9563u     -6.6791u  
  408.00000u    388.1398m   -274.9110m    130.9964u     -6.6305u  
  409.00000u    382.2782m   -275.9156m    131.0366u     -6.5819u  
  410.00000u    376.4166m   -276.9202m    131.0768u     -6.5334u  
  411.00000u    370.5550m   -277.9248m    131.1170u     -6.4848u  
  412.00000u    364.6934m   -278.9295m    131.1572u     -6.4362u  
  413.00000u    358.8319m   -279.9341m    131.1974u     -6.3877u  
  414.00000u    352.9703m   -280.9387m    131.2375u     -6.3391u  
  415.00000u    347.1087m   -281.9434m    131.2777u     -6.2905u  
  416.00000u    341.2471m   -282.9480m    131.3179u     -6.2420u  
  417.00000u    335.3855m   -283.9526m    131.3581u     -6.1934u  
  418.00000u    329.5240m   -284.9573m    131.3983u     -6.1448u  
  419.00000u    323.6624m   -285.9619m    131.4385u     -6.0962u  
  420.00000u    317.8008m   -286.9665m    131.4787u     -6.0477u  
  421.00000u    311.9392m   -287.9711m    131.5188u     -5.9991u  
  422.00000u    306.0776m   -288.9758m    131.5590u     -5.9505u  
  423.00000u    300.2160m   -289.9804m    131.5992u     -5.9020u  
  424.00000u    294.3545m   -290.9850m    131.6394u     -5.8534u  
  425.00000u    288.4929m   -291.9897m    131.6796u     -5.8048u  
  426.00000u    282.6313m   -292.9943m    131.7198u     -5.7563u  
  427.00000u    276.7697m   -293.9989m    131.7600u     -5.7077u  
  428.00000u    270.9081m   -295.0036m    131.8001u     -5.6591u  
  429.00000u    265.0465m   -296.0082m    131.8403u     -5.6105u  
  430.00000u    259.1850m   -297.0128m    131.8805u     -5.5620u  
  431.00000u    253.3234m   -298.0175m    131.9207u     -5.5134u  
  432.00000u    247.4618m   -299.0221m    131.9609u     -5.4648u  
  433.00000u    241.6002m   -300.0267m    132.0011u     -5.4163u  
  434.00000u    235.7386m   -301.0313m    132.0413u     -5.3677u  
  435.00000u    229.8771m   -302.0360m    132.0814u     -5.3191u  
  436.00000u    224.0155m   -303.0406m    132.1216u     -5.2706u  
  437.00000u    218.1539m   -304.0452m    132.1618u     -5.2220u  
  438.00000u    212.2923m   -305.0499m    132.2020u     -5.1734u  
  439.00000u    206.4307m   -306.0545m    132.2422u     -5.1249u  
  440.00000u    200.5691m   -307.0591m    132.2824u     -5.0763u  
  441.00000u    194.7076m   -308.0638m    132.3226u     -5.0277u  
  442.00000u    188.8460m   -309.0684m    132.3627u     -4.9791u  
  443.00000u    182.9844m   -310.0730m    132.4029u     -4.9306u  
  444.00000u    177.1228m   -311.0776m    132.4431u     -4.8820u  
  445.00000u    173.1327m   -311.7673m    132.4707u     -4.8490u  
  446.00000u    169.1998m   -312.4474m    132.4979u     -4.8165u  
  447.00000u    165.2669m   -313.1275m    132.5251u     -4.7839u  
  448.00000u    161.3340m   -313.8076m    132.5523u     -4.7514u  
  449.00000u    157.4011m   -314.4877m    132.5795u     -4.7189u  
  450.00000u    153.4682m   -315.1678m    132.6067u     -4.6864u  
  451.00000u    149.5352m   -315.8478m    132.6339u     -4.6538u  
  452.00000u    145.6023m   -316.5279m    132.6611u     -4.6213u  
  453.00000u    141.6694m   -317.2080m    132.6883u     -4.5888u  
  454.00000u    137.7365m   -317.8881m    132.7155u     -4.5562u  
  455.00000u    133.8036m   -318.5682m    132.7427u     -4.5237u  
  456.00000u    129.8706m   -319.2482m    132.7699u     -4.4912u  
  457.00000u    125.9377m   -319.9283m    132.7971u     -4.4587u  
  458.00000u    122.0048m   -320.6084m    132.8243u     -4.4261u  
  459.00000u    118.3607m   -321.2445m    132.8498u     -4.3961u  
  460.00000u    114.7247m   -321.8794m    132.8752u     -4.3660u  
  461.00000u    111.0887m   -322.5143m    132.9006u     -4.3360u  
  462.00000u    107.4527m   -323.1491m    132.9260u     -4.3060u  
  463.00000u    103.8167m   -323.7840m    132.9514u     -4.2760u  
  464.00000u    100.1807m   -324.4189m    132.9768u     -4.2460u  
  465.00000u     96.5447m   -325.0538m    133.0022u     -4.2160u  
  466.00000u     92.9087m   -325.6887m    133.0275u     -4.1860u  
  467.00000u     89.2727m   -326.3235m    133.0529u     -4.1560u  
  468.00000u     85.6367m   -326.9584m    133.0783u     -4.1260u  
  469.00000u     82.0007m   -327.5933m    133.1037u     -4.0959u  
  470.00000u     78.3647m   -328.2282m    133.1291u     -4.0659u  
  471.00000u     74.7287m   -328.8630m    133.1545u     -4.0359u  
  472.00000u     71.0927m   -329.4979m    133.1799u     -4.0059u  
  473.00000u     67.4567m   -330.1328m    133.2053u     -3.9759u  
  474.00000u     64.2352m   -330.7051m    133.2282u     -3.9494u  
  475.00000u     61.3340m   -331.2291m    133.2492u     -3.9256u  
  476.00000u     58.4327m   -331.7531m    133.2701u     -3.9019u  
  477.00000u     55.5315m   -332.2772m    133.2911u     -3.8781u  
  478.00000u     52.6303m   -332.8012m    133.3120u     -3.8543u  
  479.00000u     49.7291m   -333.3252m    133.3330u     -3.8305u  
  480.00000u     46.8278m   -333.8492m    133.3540u     -3.8068u  
  481.00000u     43.9266m   -334.3732m    133.3749u     -3.7830u  
  482.00000u     41.0254m   -334.8972m    133.3959u     -3.7592u  
  483.00000u     38.1241m   -335.4212m    133.4168u     -3.7355u  
  484.00000u     35.2229m   -335.9452m    133.4378u     -3.7117u  
  485.00000u     32.3217m   -336.4692m    133.4588u     -3.6879u  
  486.00000u     29.4204m   -336.9932m    133.4797u     -3.6641u  
  487.00000u     26.5192m   -337.5172m    133.5007u     -3.6404u  
  488.00000u     23.6180m   -338.0413m    133.5217u     -3.6166u  
  489.00000u     20.7168m   -338.5653m    133.5426u     -3.5928u  
  490.00000u     17.8155m   -339.0893m    133.5636u     -3.5690u  
  491.00000u     14.9143m   -339.6133m    133.5845u     -3.5453u  
  492.00000u     12.0131m   -340.1373m    133.6055u     -3.5215u  
  493.00000u      9.1118m   -340.6613m    133.6265u     -3.4977u  
  494.00000u      6.2106m   -341.1853m    133.6474u     -3.4740u  
  495.00000u      3.3094m   -341.7093m    133.6684u     -3.4502u  
  496.00000u    408.1553u   -342.2333m    133.6893u     -3.4264u  
  497.00000u     -2.4931m   -342.7573m    133.7103u     -3.4026u  
  498.00000u     -5.3943m   -343.2814m    133.7313u     -3.3789u  
  499.00000u     -8.2955m   -343.8054m    133.7522u     -3.3551u  
  500.00000u    -11.1968m   -344.3294m    133.7732u     -3.3313u  
  501.00000u     86.1866m   -356.3171m     14.2527u     -4.4250u  
  502.00000u    239.4549m   -368.3238m     14.7330u     -6.0778u  
  503.00000u    376.4333m   -380.0017m     15.2001u     -7.5644u  
  504.00000u    440.9848m   -391.1457m     15.6458u     -8.3213u  
  505.00000u    500.3282m   -402.2513m     16.0901u     -9.0258u  
  506.00000u    559.6716m   -413.3569m     16.5343u     -9.7303u  
  507.00000u    592.3630m   -424.2103m     16.9684u    -10.1657u  
  508.00000u    582.3374m   -434.6594m     17.3864u    -10.1700u  
  509.00000u    572.3117m   -445.1085m     17.8043u    -10.1742u  
  510.00000u    562.2860m   -455.5576m     18.2223u    -10.1784u  
  511.00000u    552.2663m   -465.5268m     18.6211u    -10.1779u  
  512.00000u    542.2476m   -475.4208m     19.0168u    -10.1767u  
  513.00000u    532.2289m   -485.3149m     19.4126u    -10.1754u  
  514.00000u    522.2101m   -495.2090m     19.8084u    -10.1742u  
  515.00000u    512.2080m   -504.7924m     20.1917u    -10.1700u  
  516.00000u    502.2205m   -514.1043m     20.5642u    -10.1632u  
  517.00000u    492.2330m   -523.4161m     20.9366u    -10.1565u  
  518.00000u    482.2455m   -532.7280m     21.3091u    -10.1497u  
  519.00000u    472.3236m   -541.2310m     21.6492u    -10.1355u  
  520.00000u    462.8567m   -544.1254m     21.7650u    -10.0698u  
  521.00000u    453.3897m   -547.0197m     21.8808u    -10.0041u  
  522.00000u    443.9228m   -549.9141m     21.9966u     -9.9384u  
  523.00000u    434.4558m   -552.8084m     22.1123u     -9.8726u  
  524.00000u    424.9889m   -555.7028m     22.2281u     -9.8069u  
  525.00000u    415.5219m   -558.5971m     22.3439u     -9.7412u  
  526.00000u    406.0550m   -561.4915m     22.4597u     -9.6755u  
  527.00000u    396.5880m   -564.3858m     22.5754u     -9.6097u  
  528.00000u    387.1211m   -567.2802m     22.6912u     -9.5440u  
  529.00000u    377.6542m   -570.1745m     22.8070u     -9.4783u  
  530.00000u    368.1872m   -573.0689m     22.9228u     -9.4126u  
  531.00000u    358.7203m   -575.9632m     23.0385u     -9.3468u  
  532.00000u    349.2533m   -578.8576m     23.1543u     -9.2811u  
  533.00000u    339.8072m   -581.7426m     23.2697u     -9.2155u  
  534.00000u    331.3039m   -584.2055m     23.3682u     -9.1551u  
  535.00000u    322.8006m   -586.6683m     23.4667u     -9.0947u  
  536.00000u    314.2973m   -589.1312m     23.5652u     -9.0343u  
  537.00000u    305.7940m   -591.5941m     23.6638u     -8.9739u  
  538.00000u    297.2907m   -594.0569m     23.7623u     -8.9135u  
  539.00000u    288.7873m   -596.5198m     23.8608u     -8.8531u  
  540.00000u    280.2840m   -598.9826m     23.9593u     -8.7927u  
  541.00000u    271.7807m   -601.4455m     24.0578u     -8.7323u  
  542.00000u    263.2774m   -603.9084m     24.1563u     -8.6719u  
  543.00000u    254.7741m   -606.3712m     24.2548u     -8.6115u  
  544.00000u    246.2708m   -608.8341m     24.3534u     -8.5510u  
  545.00000u    237.7675m   -611.2970m     24.4519u     -8.4906u  
  546.00000u    229.2642m   -613.7598m     24.5504u     -8.4302u  
  547.00000u    221.1342m   -616.1998m     24.6480u     -8.3733u  
  548.00000u    213.5551m   -618.6061m     24.7442u     -8.3216u  
  549.00000u    205.9761m   -621.0123m     24.8405u     -8.2699u  
  550.00000u    198.3970m   -623.4185m     24.9367u     -8.2182u  
  551.00000u    190.8179m   -625.8248m     25.0330u     -8.1664u  
  552.00000u    183.2389m   -628.2310m     25.1292u     -8.1147u  
  553.00000u    175.6598m   -630.6373m     25.2255u     -8.0630u  
  554.00000u    168.0807m   -633.0435m     25.3217u     -8.0112u  
  555.00000u    160.5017m   -635.4498m     25.4180u     -7.9595u  
  556.00000u    152.9226m   -637.8560m     25.5142u     -7.9078u  
  557.00000u    145.3435m   -640.2623m     25.6105u     -7.8561u  
  558.00000u    137.7645m   -642.6685m     25.7067u     -7.8043u  
  559.00000u    130.1854m   -645.0747m     25.8030u     -7.7526u  
  560.00000u    122.6063m   -647.4810m     25.8992u     -7.7009u  
  561.00000u    115.3579m   -648.9242m     25.9570u     -7.6428u  
  562.00000u    109.6551m   -645.8661m     25.8346u     -7.5552u  
  563.00000u    103.9523m   -642.8080m     25.7123u     -7.4676u  
  564.00000u     98.2495m   -639.7499m     25.5900u     -7.3800u  
  565.00000u     92.5467m   -636.6918m     25.4677u     -7.2924u  
  566.00000u     86.8439m   -633.6337m     25.3453u     -7.2048u  
  567.00000u     81.1411m   -630.5756m     25.2230u     -7.1172u  
  568.00000u     75.4383m   -627.5175m     25.1007u     -7.0296u  
  569.00000u     69.7355m   -624.4593m     24.9784u     -6.9419u  
  570.00000u     64.0327m   -621.4012m     24.8560u     -6.8543u  
  571.00000u     58.3299m   -618.3431m     24.7337u     -6.7667u  
  572.00000u     52.6271m   -615.2850m     24.6114u     -6.6791u  
  573.00000u     46.9243m   -612.2269m     24.4891u     -6.5915u  
  574.00000u     41.2215m   -609.1688m     24.3668u     -6.5039u  
  575.00000u     35.5187m   -606.1107m     24.2444u     -6.4163u  
  576.00000u     29.8159m   -603.0526m     24.1221u     -6.3287u  
  577.00000u     24.1131m   -599.9944m     23.9998u     -6.2411u  
  578.00000u     18.4103m   -596.9363m     23.8775u     -6.1535u  
  579.00000u     12.7075m   -593.8782m     23.7551u     -6.0659u  
  580.00000u      7.0047m   -590.8201m     23.6328u     -5.9782u  
  581.00000u      1.3019m   -587.7620m     23.5105u     -5.8906u  
  582.00000u     -4.4009m   -584.7039m     23.3882u     -5.8030u  
  583.00000u    -10.1037m   -581.6458m     23.2658u     -5.7154u  
  584.00000u    -15.8065m   -578.5877m     23.1435u     -5.6278u  
  585.00000u    -21.5092m   -575.5296m     23.0212u     -5.5402u  
  586.00000u    -27.2120m   -572.4714m     22.8989u     -5.4526u  
  587.00000u    -32.9148m   -569.4133m     22.7765u     -5.3650u  
  588.00000u    -38.6176m   -566.3552m     22.6542u     -5.2774u  
  589.00000u    -44.3204m   -563.2971m     22.5319u     -5.1898u  
  590.00000u     38.0094m   -560.1036m     22.4041u     -5.9811u  
  591.00000u    150.7171m   -556.8634m     22.2745u     -7.0758u  
  592.00000u    263.4248m   -553.6231m     22.1449u     -8.1705u  
  593.00000u    376.1326m   -550.3829m     22.0153u     -9.2652u  
  594.00000u    488.8403m   -547.1427m     21.8857u    -10.3598u  
  595.00000u    555.1942m   -543.8760m     21.7550u    -10.9907u  
  596.00000u    605.8849m   -540.6003m     21.6240u    -11.4649u  
  597.00000u    614.8639m   -537.3548m     21.4942u    -11.5222u  
  598.00000u    603.8185m   -534.1238m     21.3650u    -11.3794u  
  599.00000u    592.7731m   -530.8928m     21.2357u    -11.2367u  
  600.00000u    581.7277m   -527.6618m     21.1065u    -11.0939u  
  601.00000u    570.6823m   -524.4308m     20.9772u    -10.9511u  
  602.00000u    559.6369m   -521.1998m     20.8480u    -10.8084u  
  603.00000u    549.3405m   -518.1111m     20.7244u    -10.6745u  
  604.00000u    539.2239m   -515.0566m     20.6023u    -10.5428u  
  605.00000u    529.1074m   -512.0021m     20.4801u    -10.4111u  
  606.00000u    518.9908m   -508.9476m     20.3579u    -10.2794u  
  607.00000u    508.8742m   -505.8931m     20.2357u    -10.1477u  
  608.00000u    498.7577m   -502.8387m     20.1135u    -10.0160u  
  609.00000u    488.6411m   -499.7842m     19.9914u     -9.8843u  
  610.00000u    478.7106m   -496.7651m     19.8706u     -9.7548u  
  611.00000u    469.3989m   -493.8641m     19.7546u     -9.6326u  
  612.00000u    460.0872m   -490.9631m     19.6385u     -9.5105u  
  613.00000u    450.7756m   -488.0621m     19.5225u     -9.3884u  
  614.00000u    441.4639m   -485.1611m     19.4064u     -9.2662u  
  615.00000u    432.6857m   -482.3624m     19.2945u     -9.1505u  
  616.00000u    424.5323m   -479.6836m     19.1873u     -9.0422u  
  617.00000u    416.3789m   -477.0048m     19.0802u     -8.9338u  
  618.00000u    408.2255m   -474.3260m     18.9730u     -8.8255u  
  619.00000u    400.0721m   -471.6473m     18.8659u     -8.7172u  
  620.00000u    391.9187m   -468.9685m     18.7587u     -8.6089u  
  621.00000u    383.7654m   -466.2897m     18.6516u     -8.5006u  
  622.00000u    375.6120m   -463.6109m     18.5444u     -8.3922u  
  623.00000u    367.4586m   -460.9321m     18.4373u     -8.2839u  
  624.00000u    359.3052m   -458.2533m     18.3301u     -8.1756u  
  625.00000u    351.1518m   -455.5745m     18.2230u     -8.0673u  
  626.00000u    342.9985m   -452.8957m     18.1158u     -7.9589u  
  627.00000u    334.8451m   -450.2169m     18.0087u     -7.8506u  
  628.00000u    326.6917m   -447.5381m     17.9015u     -7.7423u  
  629.00000u    318.5383m   -444.8593m     17.7944u     -7.6340u  
  630.00000u    310.9434m   -442.2887m     17.6915u     -7.5323u  
  631.00000u    305.6599m   -440.1660m     17.6066u     -7.4583u  
  632.00000u    300.3763m   -438.0433m     17.5217u     -7.3842u  
  633.00000u    295.0928m   -435.9206m     17.4368u     -7.3101u  
  634.00000u    289.8093m   -433.7979m     17.3519u     -7.2361u  
  635.00000u    284.5258m   -431.6752m     17.2670u     -7.1620u  
  636.00000u    279.2422m   -429.5524m     17.1821u     -7.0879u  
  637.00000u    273.9587m   -427.4297m     17.0972u     -7.0139u  
  638.00000u    268.6752m   -425.3070m     17.0123u     -6.9398u  
  639.00000u    263.3917m   -423.1843m     16.9274u     -6.8658u  
  640.00000u    258.1081m   -421.0616m     16.8425u     -6.7917u  
  641.00000u    252.8246m   -418.9389m     16.7576u     -6.7176u  
  642.00000u    247.5411m   -416.8162m     16.6726u     -6.6436u  
  643.00000u    242.2575m   -414.6935m     16.5877u     -6.5695u  
  644.00000u    236.9740m   -412.5708m     16.5028u     -6.4954u  
  645.00000u    231.6905m   -410.4481m     16.4179u     -6.4214u  
  646.00000u    226.4070m   -408.3254m     16.3330u     -6.3473u  
  647.00000u    221.1234m   -406.2026m     16.2481u     -6.2733u  
  648.00000u    215.8399m   -404.0799m     16.1632u     -6.1992u  
  649.00000u    210.5564m   -401.9572m     16.0783u     -6.1251u  
  650.00000u    205.2729m   -399.8345m     15.9934u     -6.0511u  
  651.00000u    199.9893m   -397.7118m     15.9085u     -5.9770u  
  652.00000u    194.7058m   -395.5891m     15.8236u     -5.9029u  
  653.00000u    189.4223m   -393.4664m     15.7387u     -5.8289u  
  654.00000u    184.1387m   -391.3437m     15.6537u     -5.7548u  
  655.00000u    178.8552m   -389.2210m     15.5688u     -5.6808u  
  656.00000u    173.5717m   -387.0983m     15.4839u     -5.6067u  
  657.00000u    168.2882m   -384.9756m     15.3990u     -5.5326u  
  658.00000u    163.0046m   -382.8529m     15.3141u     -5.4586u  
  659.00000u    157.7211m   -380.7301m     15.2292u     -5.3845u  
  660.00000u    152.4376m   -378.6074m     15.1443u     -5.3105u  
  661.00000u    147.1541m   -376.4847m     15.0594u     -5.2364u  
  662.00000u    141.8705m   -374.3620m     14.9745u     -5.1623u  
  663.00000u    136.5870m   -372.2393m     14.8896u     -5.0883u  
  664.00000u    131.3035m   -370.1166m     14.8047u     -5.0142u  
  665.00000u    126.0199m   -367.9939m     14.7198u     -4.9401u  
  666.00000u    120.7364m   -365.8712m     14.6348u     -4.8661u  
  667.00000u    115.4529m   -363.7485m     14.5499u     -4.7920u  
  668.00000u    110.1694m   -361.6258m     14.4650u     -4.7180u  
  669.00000u    104.8858m   -359.5031m     14.3801u     -4.6439u  
  670.00000u     99.6023m   -357.3803m     14.2952u     -4.5698u  
  671.00000u     94.3188m   -355.2576m     14.2103u     -4.4958u  
  672.00000u     89.0353m   -353.1349m     14.1254u     -4.4217u  
  673.00000u     83.7517m   -351.0122m     14.0405u     -4.3476u  
  674.00000u     78.4682m   -348.8895m     13.9556u     -4.2736u  
  675.00000u     73.1847m   -346.7668m     13.8707u     -4.1995u  
  676.00000u     67.9012m   -344.6441m     13.7858u     -4.1255u  
  677.00000u     62.6176m   -342.5214m     13.7009u     -4.0514u  
  678.00000u     57.3341m   -340.3987m     13.6159u     -3.9773u  
  679.00000u     52.9837m   -338.4606m     13.5384u     -3.9144u  
  680.00000u     50.2085m   -336.8343m     13.4734u     -3.8704u  
  681.00000u     47.4332m   -335.2080m     13.4083u     -3.8264u  
  682.00000u     44.6580m   -333.5817m     13.3433u     -3.7824u  
  683.00000u     41.8828m   -331.9553m     13.2782u     -3.7384u  
  684.00000u     39.1076m   -330.3290m     13.2132u     -3.6944u  
  685.00000u     36.3324m   -328.7027m     13.1481u     -3.6504u  
  686.00000u     33.5571m   -327.0764m     13.0831u     -3.6063u  
  687.00000u     30.7819m   -325.4500m     13.0180u     -3.5623u  
  688.00000u     28.0067m   -323.8237m     12.9529u     -3.5183u  
  689.00000u     25.5192m   -322.2593m     12.8904u     -3.4778u  
  690.00000u     23.1008m   -320.7096m     12.8284u     -3.4381u  
  691.00000u     20.6825m   -319.1600m     12.7664u     -3.3984u  
  692.00000u     18.2641m   -317.6104m     12.7044u     -3.3587u  
  693.00000u     15.8457m   -316.0608m     12.6424u     -3.3191u  
  694.00000u     13.4274m   -314.5112m     12.5804u     -3.2794u  
  695.00000u     11.0090m   -312.9616m     12.5185u     -3.2397u  
  696.00000u      8.5907m   -311.4120m     12.4565u     -3.2000u  
  697.00000u      6.1723m   -309.8624m     12.3945u     -3.1603u  
  698.00000u      3.7539m   -308.3128m     12.3325u     -3.1207u  
  699.00000u      1.3356m   -306.7632m     12.2705u     -3.0810u  
  700.00000u     -1.0828m   -305.2136m     12.2085u     -3.0413u  
  701.00000u     -3.5012m   -303.6640m     12.1466u     -3.0016u  
  702.00000u     -5.9195m   -302.1144m     12.0846u     -2.9619u  
  703.00000u     -8.3379m   -300.5648m     12.0226u     -2.9223u  
  704.00000u    111.3123m   -298.7818m     11.9513u     -4.1009u  
  705.00000u    244.3410m   -296.9731m     11.8789u     -5.4131u  
  706.00000u    375.6299m   -295.1496m     11.8060u     -6.7078u  
  707.00000u    499.3437m   -293.2611m     11.7304u     -7.9260u  
  708.00000u    566.6915m   -291.2369m     11.6495u     -8.5793u  
  709.00000u    618.7277m   -289.1757m     11.5670u     -9.0790u  
  710.00000u    670.7638m   -287.1145m     11.4846u     -9.5788u  
  711.00000u    722.8000m   -285.0533m     11.4021u    -10.0785u  
  712.00000u    755.8894m   -282.9764m     11.3191u    -10.3887u  
  713.00000u    745.8263m   -280.8639m     11.2346u    -10.2669u  
  714.00000u    735.7632m   -278.7514m     11.1501u    -10.1451u  
  715.00000u    725.7002m   -276.6389m     11.0656u    -10.0234u  
  716.00000u    715.8046m   -274.5550m     10.9822u     -9.9036u  
  717.00000u    706.2856m   -272.5357m     10.9014u     -9.7882u  
  718.00000u    696.7666m   -270.5165m     10.8207u     -9.6728u  
  719.00000u    687.2476m   -268.4972m     10.7399u     -9.5574u  
  720.00000u    677.7287m   -266.4779m     10.6591u     -9.4421u  
  721.00000u    668.2669m   -264.4684m     10.5787u     -9.3274u  
  722.00000u    659.3273m   -262.5485m     10.5019u     -9.2188u  
  723.00000u    650.3876m   -260.6287m     10.4251u     -9.1102u  
  724.00000u    641.4480m   -258.7088m     10.3484u     -9.0016u  
  725.00000u    632.5083m   -256.7890m     10.2716u     -8.8930u  
  726.00000u    623.5686m   -254.8691m     10.1948u     -8.7844u  
  727.00000u    615.6957m   -253.1328m     10.1253u     -8.6883u  
  728.00000u    607.8285m   -251.3975m     10.0559u     -8.5923u  
  729.00000u    599.9613m   -249.6622m      9.9865u     -8.4962u  
  730.00000u    592.0940m   -247.9269m      9.9171u     -8.4002u  
  731.00000u    584.2268m   -246.1916m      9.8477u     -8.3042u  
  732.00000u    576.3596m   -244.4563m      9.7783u     -8.2082u  
  733.00000u    568.4924m   -242.7210m      9.7088u     -8.1121u  
  734.00000u    560.6252m   -240.9857m      9.6394u     -8.0161u  
  735.00000u    552.7579m   -239.2504m      9.5700u     -7.9201u  
  736.00000u    544.8907m   -237.5151m      9.5006u     -7.8241u  
  737.00000u    537.0235m   -235.7798m      9.4312u     -7.7280u  
  738.00000u    529.1563m   -234.0445m      9.3618u     -7.6320u  
  739.00000u    521.2891m   -232.3092m      9.2924u     -7.5360u  
  740.00000u    513.4218m   -230.5739m      9.2230u     -7.4400u  
  741.00000u    505.5546m   -228.8386m      9.1535u     -7.3439u  
  742.00000u    497.6874m   -227.1032m      9.0841u     -7.2479u  
  743.00000u    491.4971m   -225.6571m      9.0263u     -7.1715u  
  744.00000u    486.1652m   -224.3590m      8.9744u     -7.1052u  
  745.00000u    480.8333m   -223.0609m      8.9224u     -7.0389u  
  746.00000u    475.5015m   -221.7628m      8.8705u     -6.9726u  
  747.00000u    470.1696m   -220.4647m      8.8186u     -6.9063u  
  748.00000u    464.8377m   -219.1666m      8.7667u     -6.8400u  
  749.00000u    459.5059m   -217.8685m      8.7147u     -6.7737u  
  750.00000u    454.1740m   -216.5704m      8.6628u     -6.7074u  
  751.00000u    448.8421m   -215.2723m      8.6109u     -6.6411u  
  752.00000u    443.5102m   -213.9742m      8.5590u     -6.5748u  
  753.00000u    438.1784m   -212.6761m      8.5070u     -6.5085u  
  754.00000u    432.8465m   -211.3780m      8.4551u     -6.4422u  
  755.00000u    427.5146m   -210.0799m      8.4032u     -6.3759u  
  756.00000u    422.1827m   -208.7817m      8.3513u     -6.3096u  
  757.00000u    416.8509m   -207.4836m      8.2993u     -6.2433u  
  758.00000u    411.5190m   -206.1855m      8.2474u     -6.1770u  
  759.00000u    406.1871m   -204.8874m      8.1955u     -6.1107u  
  760.00000u    400.8553m   -203.5893m      8.1436u     -6.0444u  
  761.00000u    395.5234m   -202.2912m      8.0916u     -5.9781u  
  762.00000u    390.1915m   -200.9931m      8.0397u     -5.9118u  
  763.00000u    384.8596m   -199.6950m      7.9878u     -5.8455u  
  764.00000u    379.5278m   -198.3969m      7.9359u     -5.7792u  
  765.00000u    374.1959m   -197.0988m      7.8840u     -5.7129u  
  766.00000u    368.8640m   -195.8007m      7.8320u     -5.6466u  
  767.00000u    363.5321m   -194.5026m      7.7801u     -5.5803u  
  768.00000u    358.2003m   -193.2045m      7.7282u     -5.5140u  
  769.00000u    352.8684m   -191.9064m      7.6763u     -5.4477u  
  770.00000u    347.5365m   -190.6083m      7.6243u     -5.3814u  
  771.00000u    342.2047m   -189.3102m      7.5724u     -5.3151u  
  772.00000u    336.8728m   -188.0121m      7.5205u     -5.2488u  
  773.00000u    331.5409m   -186.7140m      7.4686u     -5.1825u  
  774.00000u    326.2090m   -185.4159m      7.4166u     -5.1162u  
  775.00000u    320.8772m   -184.1178m      7.3647u     -5.0499u  
  776.00000u    315.5453m   -182.8197m      7.3128u     -4.9836u  
  777.00000u    310.2134m   -181.5215m      7.2609u     -4.9173u  
  778.00000u    304.8815m   -180.2234m      7.2089u     -4.8510u  
  779.00000u    299.5497m   -178.9253m      7.1570u     -4.7848u  
  780.00000u    294.2178m   -177.6272m      7.1051u     -4.7185u  
  781.00000u    288.8859m   -176.3291m      7.0532u     -4.6522u  
  782.00000u    283.5541m   -175.0310m      7.0012u     -4.5859u  
  783.00000u    278.2222m   -173.7329m      6.9493u     -4.5196u  
  784.00000u    272.8903m   -172.4348m      6.8974u     -4.4533u  
  785.00000u    267.5584m   -171.1367m      6.8455u     -4.3870u  
  786.00000u    262.2266m   -169.8386m      6.7935u     -4.3207u  
  787.00000u    256.8947m   -168.5405m      6.7416u     -4.2544u  
  788.00000u    251.5628m   -167.2424m      6.6897u     -4.1881u  
  789.00000u    246.2309m   -165.9443m      6.6378u     -4.1218u  
  790.00000u    240.8991m   -164.6462m      6.5858u     -4.0555u  
  791.00000u    235.5672m   -163.3481m      6.5339u     -3.9892u  
  792.00000u    230.2353m   -162.0500m      6.4820u     -3.9229u  
  793.00000u    226.5178m   -161.0327m      6.4413u     -3.8755u  
  794.00000u    223.7396m   -160.1789m      6.4072u     -3.8392u  
  795.00000u    220.9614m   -159.3252m      6.3730u     -3.8029u  
  796.00000u    218.1832m   -158.4714m      6.3389u     -3.7665u  
  797.00000u    215.4049m   -157.6176m      6.3047u     -3.7302u  
  798.00000u    212.6267m   -156.7638m      6.2706u     -3.6939u  
  799.00000u    209.8485m   -155.9100m      6.2364u     -3.6576u  
  800.00000u    207.0703m   -155.0562m      6.2022u     -3.6213u  
  801.00000u    204.2921m   -154.2024m      6.1681u     -3.5849u  
  802.00000u    201.5139m   -153.3486m      6.1339u     -3.5486u  
  803.00000u    198.7356m   -152.4948m      6.0998u     -3.5123u  
  804.00000u    195.9574m   -151.6410m      6.0656u     -3.4760u  
  805.00000u    193.1792m   -150.7872m      6.0315u     -3.4397u  
  806.00000u    190.4010m   -149.9334m      5.9973u     -3.4033u  
  807.00000u    187.6228m   -149.0796m      5.9632u     -3.3670u  
  808.00000u    184.8446m   -148.2258m      5.9290u     -3.3307u  
  809.00000u    182.0664m   -147.3720m      5.8949u     -3.2944u  
  810.00000u    179.2881m   -146.5182m      5.8607u     -3.2581u  
  811.00000u    176.5099m   -145.6644m      5.8266u     -3.2217u  
  812.00000u    173.7317m   -144.8106m      5.7924u     -3.1854u  
  813.00000u    170.9535m   -143.9568m      5.7583u     -3.1491u  
  814.00000u    168.1753m   -143.1030m      5.7241u     -3.1128u  
  815.00000u    165.3971m   -142.2492m      5.6900u     -3.0765u  
  816.00000u    162.6189m   -141.3954m      5.6558u     -3.0401u  
  817.00000u    159.8406m   -140.5416m      5.6217u     -3.0038u  
  818.00000u    157.0624m   -139.6878m      5.5875u     -2.9675u  
  819.00000u    154.2842m   -138.8340m      5.5534u     -2.9312u  
  820.00000u    151.5060m   -137.9802m      5.5192u     -2.8949u  
  821.00000u    148.7278m   -137.1264m      5.4851u     -2.8585u  
  822.00000u    145.9496m   -136.2726m      5.4509u     -2.8222u  
  823.00000u    143.1713m   -135.4188m      5.4168u     -2.7859u  
  824.00000u    140.3931m   -134.5650m      5.3826u     -2.7496u  
  825.00000u    137.6149m   -133.7112m      5.3484u     -2.7133u  
  826.00000u    134.8367m   -132.8574m      5.3143u     -2.6769u  
  827.00000u    132.0585m   -132.0036m      5.2801u     -2.6406u  
  828.00000u    129.2803m   -131.1498m      5.2460u     -2.6043u  
  829.00000u    126.5021m   -130.2960m      5.2118u     -2.5680u  
  830.00000u    123.7238m   -129.4422m      5.1777u     -2.5317u  
  831.00000u    120.9456m   -128.5884m      5.1435u     -2.4953u  
  832.00000u    118.1674m   -127.7346m      5.1094u     -2.4590u  
  833.00000u    116.3870m   -127.0649m      5.0826u     -2.4345u  
  834.00000u    115.0183m   -126.4712m      5.0588u     -2.4149u  
  835.00000u    113.6497m   -125.8775m      5.0351u     -2.3953u  
  836.00000u    112.2810m   -125.2838m      5.0114u     -2.3756u  
  837.00000u    110.9124m   -124.6901m      4.9876u     -2.3560u  
  838.00000u    109.5438m   -124.0964m      4.9639u     -2.3364u  
  839.00000u    108.1751m   -123.5027m      4.9401u     -2.3168u  
  840.00000u    106.8065m   -122.9090m      4.9164u     -2.2972u  
  841.00000u    105.4378m   -122.3153m      4.8926u     -2.2775u  
  842.00000u    104.0692m   -121.7216m      4.8689u     -2.2579u  
  843.00000u    102.7005m   -121.1279m      4.8451u     -2.2383u  
  844.00000u    101.3319m   -120.5342m      4.8214u     -2.2187u  
  845.00000u     99.9632m   -119.9405m      4.7976u     -2.1990u  
  846.00000u     98.5946m   -119.3468m      4.7739u     -2.1794u  
  847.00000u     97.2259m   -118.7531m      4.7501u     -2.1598u  
  848.00000u     95.8573m   -118.1594m      4.7264u     -2.1402u  
  849.00000u     94.4887m   -117.5657m      4.7026u     -2.1205u  
  850.00000u     93.1200m   -116.9720m      4.6789u     -2.1009u  
  851.00000u     91.7514m   -116.3783m      4.6551u     -2.0813u  
  852.00000u     90.3827m   -115.7846m      4.6314u     -2.0617u  
  853.00000u     89.0141m   -115.1909m      4.6076u     -2.0420u  
  854.00000u     87.6454m   -114.5972m      4.5839u     -2.0224u  
  855.00000u     86.2768m   -114.0035m      4.5601u     -2.0028u  
  856.00000u     84.9081m   -113.4098m      4.5364u     -1.9832u  
  857.00000u     83.5395m   -112.8161m      4.5126u     -1.9636u  
  858.00000u     82.1708m   -112.2224m      4.4889u     -1.9439u  
  859.00000u     80.8022m   -111.6287m      4.4651u     -1.9243u  
  860.00000u     79.4335m   -111.0350m      4.4414u     -1.9047u  
  861.00000u     78.0649m   -110.4413m      4.4177u     -1.8851u  
  862.00000u     76.6963m   -109.8475m      4.3939u     -1.8654u  
  863.00000u     75.3276m   -109.2538m      4.3702u     -1.8458u  
  864.00000u     73.9590m   -108.6601m      4.3464u     -1.8262u  
  865.00000u     72.5903m   -108.0664m      4.3227u     -1.8066u  
  866.00000u     71.2217m   -107.4727m      4.2989u     -1.7869u  
  867.00000u     69.8530m   -106.8790m      4.2752u     -1.7673u  
  868.00000u     68.4844m   -106.2853m      4.2514u     -1.7477u  
  869.00000u     67.1157m   -105.6916m      4.2277u     -1.7281u  
  870.00000u     65.7471m   -105.0979m      4.2039u     -1.7085u  
  871.00000u     64.3784m   -104.5042m      4.1802u     -1.6888u  
  872.00000u     63.0098m   -103.9105m      4.1564u     -1.6692u  
  873.00000u     61.6412m   -103.3168m      4.1327u     -1.6496u  
  874.00000u     60.2725m   -102.7231m      4.1089u     -1.6300u  
  875.00000u     58.9039m   -102.1294m      4.0852u     -1.6103u  
  876.00000u     57.5352m   -101.5357m      4.0614u     -1.5907u  
  877.00000u     56.1666m   -100.9420m      4.0377u     -1.5711u  
  878.00000u     54.7979m   -100.3483m      4.0139u     -1.5515u  
  879.00000u     53.4293m    -99.7546m      3.9902u     -1.5318u  
  880.00000u     52.0606m    -99.1609m      3.9664u     -1.5122u  
  881.00000u     50.6920m    -98.5672m      3.9427u     -1.4926u  
  882.00000u     49.3233m    -97.9735m      3.9189u     -1.4730u  
  883.00000u     47.9547m    -97.3798m      3.8952u     -1.4533u  
  884.00000u     46.5861m    -96.7861m      3.8714u     -1.4337u  
  885.00000u     45.7748m    -96.3099m      3.8524u     -1.4208u  
  886.00000u     45.2622m    -95.8967m      3.8359u     -1.4116u  
  887.00000u     44.7496m    -95.4835m      3.8193u     -1.4023u  
  888.00000u     44.2370m    -95.0703m      3.8028u     -1.3931u  
  889.00000u     43.7244m    -94.6571m      3.7863u     -1.3838u  
  890.00000u     43.2118m    -94.2439m      3.7698u     -1.3746u  
  891.00000u     42.6992m    -93.8307m      3.7532u     -1.3653u  
  892.00000u     42.1866m    -93.4175m      3.7367u     -1.3560u  
  893.00000u     41.6740m    -93.0043m      3.7202u     -1.3468u  
  894.00000u     41.1614m    -92.5911m      3.7036u     -1.3375u  
  895.00000u     40.6488m    -92.1779m      3.6871u     -1.3283u  
  896.00000u     40.1361m    -91.7647m      3.6706u     -1.3190u  
  897.00000u     39.6235m    -91.3515m      3.6541u     -1.3098u  
  898.00000u     39.1109m    -90.9383m      3.6375u     -1.3005u  
  899.00000u     38.5983m    -90.5251m      3.6210u     -1.2912u  
  900.00000u     38.0857m    -90.1119m      3.6045u     -1.2820u  
  901.00000u     37.5731m    -89.6987m      3.5879u     -1.2727u  
  902.00000u     37.0605m    -89.2855m      3.5714u     -1.2635u  
  903.00000u     36.5479m    -88.8723m      3.5549u     -1.2542u  
  904.00000u     36.0353m    -88.4591m      3.5384u     -1.2449u  
  905.00000u     35.5227m    -88.0459m      3.5218u     -1.2357u  
  906.00000u     35.0101m    -87.6327m      3.5053u     -1.2264u  
  907.00000u     34.4974m    -87.2195m      3.4888u     -1.2172u  
  908.00000u     33.9848m    -86.8063m      3.4723u     -1.2079u  
  909.00000u     33.4722m    -86.3931m      3.4557u     -1.1987u  
  910.00000u     32.9596m    -85.9799m      3.4392u     -1.1894u  
  911.00000u     32.4470m    -85.5667m      3.4227u     -1.1801u  
  912.00000u     31.9344m    -85.1535m      3.4061u     -1.1709u  
  913.00000u     31.4218m    -84.7402m      3.3896u     -1.1616u  
  914.00000u     30.9092m    -84.3270m      3.3731u     -1.1524u  
  915.00000u     30.3966m    -83.9138m      3.3566u     -1.1431u  
  916.00000u     29.8840m    -83.5006m      3.3400u     -1.1338u  
  917.00000u     29.3714m    -83.0874m      3.3235u     -1.1246u  
  918.00000u     28.8588m    -82.6742m      3.3070u     -1.1153u  
  919.00000u     28.3461m    -82.2610m      3.2904u     -1.1061u  
  920.00000u     27.8335m    -81.8478m      3.2739u     -1.0968u  
  921.00000u     27.3209m    -81.4346m      3.2574u     -1.0876u  
  922.00000u     26.8083m    -81.0214m      3.2409u     -1.0783u  
  923.00000u     26.2957m    -80.6082m      3.2243u     -1.0690u  
  924.00000u     25.7831m    -80.1950m      3.2078u     -1.0598u  
  925.00000u     25.2705m    -79.7818m      3.1913u     -1.0505u  
  926.00000u     24.7579m    -79.3686m      3.1747u     -1.0413u  
  927.00000u     24.2453m    -78.9554m      3.1582u     -1.0320u  
  928.00000u     23.7327m    -78.5422m      3.1417u     -1.0227u  
  929.00000u     23.2201m    -78.1290m      3.1252u     -1.0135u  
  930.00000u     22.7074m    -77.7158m      3.1086u     -1.0042u  
  931.00000u     22.1948m    -77.3026m      3.0921u   -994.9745n  
  932.00000u     21.6822m    -76.8894m      3.0756u   -985.7164n  
  933.00000u     21.4513m    -76.5585m      3.0623u   -980.0980n  
  934.00000u     21.3347m    -76.2609m      3.0504u   -975.9560n  
  935.00000u     21.2181m    -75.9633m      3.0385u   -971.8139n  
  936.00000u     21.1015m    -75.6657m      3.0266u   -967.6719n  
  937.00000u     20.9849m    -75.3681m      3.0147u   -963.5299n  
  938.00000u     20.8683m    -75.0705m      3.0028u   -959.3878n  
  939.00000u     20.7517m    -74.7729m      2.9909u   -955.2458n  
  940.00000u     20.6350m    -74.4753m      2.9790u   -951.1038n  
  941.00000u     20.5184m    -74.1778m      2.9671u   -946.9618n  
  942.00000u     20.4018m    -73.8802m      2.9552u   -942.8197n  
  943.00000u     20.2852m    -73.5826m      2.9433u   -938.6777n  
  944.00000u     20.1686m    -73.2850m      2.9314u   -934.5357n  
  945.00000u     20.0520m    -72.9874m      2.9195u   -930.3936n  
  946.00000u     19.9353m    -72.6898m      2.9076u   -926.2516n  
  947.00000u     19.8187m    -72.3922m      2.8957u   -922.1096n  
  948.00000u     19.7021m    -72.0946m      2.8838u   -917.9676n  
  949.00000u     19.5855m    -71.7971m      2.8719u   -913.8255n  
  950.00000u     19.4689m    -71.4995m      2.8600u   -909.6835n  
  951.00000u     19.3523m    -71.2019m      2.8481u   -905.5415n  
  952.00000u     19.2357m    -70.9043m      2.8362u   -901.3994n  
  953.00000u     19.1190m    -70.6067m      2.8243u   -897.2574n  
  954.00000u     19.0024m    -70.3091m      2.8124u   -893.1154n  
  955.00000u     18.8858m    -70.0115m      2.8005u   -888.9734n  
  956.00000u     18.7692m    -69.7139m      2.7886u   -884.8313n  
  957.00000u     18.6526m    -69.4164m      2.7767u   -880.6893n  
  958.00000u     18.5360m    -69.1188m      2.7648u   -876.5473n  
  959.00000u     18.4193m    -68.8212m      2.7528u   -872.4052n  
  960.00000u     18.3027m    -68.5236m      2.7409u   -868.2632n  
  961.00000u     18.1861m    -68.2260m      2.7290u   -864.1212n  
  962.00000u     18.0695m    -67.9284m      2.7171u   -859.9792n  
  963.00000u     17.9529m    -67.6308m      2.7052u   -855.8371n  
  964.00000u     17.8363m    -67.3332m      2.6933u   -851.6951n  
  965.00000u     17.7196m    -67.0357m      2.6814u   -847.5531n  
  966.00000u     17.6030m    -66.7381m      2.6695u   -843.4110n  
  967.00000u     17.4864m    -66.4405m      2.6576u   -839.2690n  
  968.00000u     17.3698m    -66.1429m      2.6457u   -835.1270n  
  969.00000u     17.2532m    -65.8453m      2.6338u   -830.9849n  
  970.00000u     17.1366m    -65.5477m      2.6219u   -826.8429n  
  971.00000u     17.0200m    -65.2501m      2.6100u   -822.7009n  
  972.00000u     16.9033m    -64.9525m      2.5981u   -818.5589n  
  973.00000u     16.7867m    -64.6550m      2.5862u   -814.4168n  
  974.00000u     16.6701m    -64.3574m      2.5743u   -810.2748n  
  975.00000u     16.5535m    -64.0598m      2.5624u   -806.1328n  
  976.00000u     16.4369m    -63.7622m      2.5505u   -801.9907n  
  977.00000u     16.3203m    -63.4646m      2.5386u   -797.8487n  
  978.00000u     16.2036m    -63.1670m      2.5267u   -793.7067n  
  979.00000u     16.0870m    -62.8694m      2.5148u   -789.5647n  
  980.00000u     15.9704m    -62.5718m      2.5029u   -785.4226n  
  981.00000u     15.8538m    -62.2743m      2.4910u   -781.2806n  
  982.00000u     15.7372m    -61.9767m      2.4791u   -777.1386n  
  983.00000u     15.6206m    -61.6791m      2.4672u   -772.9965n  
  984.00000u     15.5040m    -61.3815m      2.4553u   -768.8545n  
  985.00000u     15.3873m    -61.0839m      2.4434u   -764.7125n  
  986.00000u     15.2707m    -60.7863m      2.4315u   -760.5705n  
  987.00000u     15.1541m    -60.4887m      2.4195u   -756.4284n  
  988.00000u     15.0375m    -60.1911m      2.4076u   -752.2864n  
  989.00000u     14.9209m    -59.8936m      2.3957u   -748.1444n  
  990.00000u     14.8043m    -59.5960m      2.3838u   -744.0023n  
  991.00000u     14.6876m    -59.2984m      2.3719u   -739.8603n  
  992.00000u     14.5710m    -59.0008m      2.3600u   -735.7183n  
  993.00000u     14.4544m    -58.7032m      2.3481u   -731.5763n  
  994.00000u     14.4693m    -58.4690m      2.3388u   -729.3832n  
  995.00000u     14.5315m    -58.2575m      2.3303u   -727.8901n  
  996.00000u     14.5936m    -58.0461m      2.3218u   -726.3971n  
  997.00000u     14.6558m    -57.8346m      2.3134u   -724.9041n  
  998.00000u     14.7180m    -57.6231m      2.3049u   -723.4111n  
  999.00000u     14.7801m    -57.4117m      2.2965u   -721.9181n  
    1.00000m     14.8423m    -57.2002m      2.2880u   -720.4250n  
    1.00100m     14.9044m    -56.9888m      2.2796u   -718.9320n  
    1.00200m     14.9666m    -56.7773m      2.2711u   -717.4390n  
    1.00300m     15.0288m    -56.5658m      2.2626u   -715.9460n  
    1.00400m     15.0909m    -56.3544m      2.2542u   -714.4529n  
    1.00500m     15.1531m    -56.1429m      2.2457u   -712.9599n  
    1.00600m     15.2152m    -55.9315m      2.2373u   -711.4669n  
    1.00700m     15.2774m    -55.7200m      2.2288u   -709.9739n  
    1.00800m     15.3395m    -55.5085m      2.2203u   -708.4809n  
    1.00900m     15.4017m    -55.2971m      2.2119u   -706.9878n  
    1.01000m     15.4639m    -55.0856m      2.2034u   -705.4948n  
    1.01100m     15.5260m    -54.8742m      2.1950u   -704.0018n  
    1.01200m     15.5882m    -54.6627m      2.1865u   -702.5088n  
    1.01300m     15.6503m    -54.4512m      2.1780u   -701.0157n  
    1.01400m     15.7125m    -54.2398m      2.1696u   -699.5227n  
    1.01500m     15.7746m    -54.0283m      2.1611u   -698.0297n  
    1.01600m     15.8368m    -53.8169m      2.1527u   -696.5367n  
    1.01700m     15.8990m    -53.6054m      2.1442u   -695.0437n  
[...]
    1.73300m    522.6650m   -291.1758m     11.6470u     -8.1384u  
    1.73400m    574.8470m   -289.0678m     11.5627u     -8.6391u  
    1.73500m    627.0290m   -286.9598m     11.4784u     -9.1399u  
    1.73600m    679.2110m   -284.8518m     11.3941u     -9.6406u  
    1.73700m    731.3930m   -282.7438m     11.3098u    -10.1414u  
    1.73800m    783.5750m   -280.6358m     11.2254u    -10.6421u  
    1.73900m    835.7570m   -278.5278m     11.1411u    -11.1428u  
    1.74000m    887.9389m   -276.4198m     11.0568u    -11.6436u  
    1.74100m    913.2724m   -274.2708m     10.9708u    -11.8754u  
    1.74200m    901.8518m   -272.0656m     10.8826u    -11.7392u  
    1.74300m    890.4313m   -269.8604m     10.7944u    -11.6029u  
    1.74400m    879.0107m   -267.6551m     10.7062u    -11.4667u  
    1.74500m    867.5902m   -265.4499m     10.6180u    -11.3304u  
    1.74600m    856.1696m   -263.2447m     10.5298u    -11.1941u  
    1.74700m    845.3202m   -261.1352m     10.4454u    -11.0646u  
    1.74800m    834.7289m   -259.0689m     10.3628u    -10.9380u  
    1.74900m    824.1377m   -257.0025m     10.2801u    -10.8114u  
    1.75000m    813.5464m   -254.9362m     10.1974u    -10.6848u  
    1.75100m    802.9551m   -252.8699m     10.1148u    -10.5583u  
    1.75200m    792.3639m   -250.8036m     10.0321u    -10.4317u  
    1.75300m    781.7726m   -248.7373m      9.9495u    -10.3051u  
    1.75400m    771.7447m   -246.7655m      9.8706u    -10.1851u  
    1.75500m    761.9639m   -244.8352m      9.7934u    -10.0680u  
    1.75600m    752.1830m   -242.9049m      9.7162u     -9.9509u  
    1.75700m    742.4022m   -240.9746m      9.6390u     -9.8338u  
    1.75800m    732.6214m   -239.0443m      9.5618u     -9.7167u  
    1.75900m    722.8405m   -237.1139m      9.4846u     -9.5995u  
    1.76000m    713.5870m   -235.2724m      9.4109u     -9.4886u  
    1.76100m    705.2009m   -233.5768m      9.3431u     -9.3878u  
    1.76200m    696.8147m   -231.8811m      9.2752u     -9.2870u  
    1.76300m    688.4286m   -230.1855m      9.2074u     -9.1861u  
    1.76400m    680.0425m   -228.4899m      9.1396u     -9.0853u  
    1.76500m    671.6564m   -226.7943m      9.0718u     -8.9845u  
    1.76600m    663.2703m   -225.0987m      9.0039u     -8.8837u  
    1.76700m    654.8842m   -223.4031m      8.9361u     -8.7829u  
    1.76800m    646.4980m   -221.7075m      8.8683u     -8.6821u  
    1.76900m    638.1119m   -220.0119m      8.8005u     -8.5812u  
    1.77000m    629.7258m   -218.3163m      8.7327u     -8.4804u  
    1.77100m    621.3397m   -216.6207m      8.6648u     -8.3796u  
    1.77200m    612.9536m   -214.9251m      8.5970u     -8.2788u  
    1.77300m    604.5675m   -213.2295m      8.5292u     -8.1780u  
    1.77400m    596.1814m   -211.5339m      8.4614u     -8.0772u  
    1.77500m    587.7952m   -209.8383m      8.3935u     -7.9763u  
    1.77600m    579.4091m   -208.1427m      8.3257u     -7.8755u  
    1.77700m    571.0230m   -206.4471m      8.2579u     -7.7747u  
    1.77800m    562.6369m   -204.7515m      8.1901u     -7.6739u  
    1.77900m    554.2508m   -203.0559m      8.1222u     -7.5731u  
    1.78000m    546.3039m   -201.4342m      8.0574u     -7.4774u  
    1.78100m    540.6040m   -200.1907m      8.0076u     -7.4079u  
    1.78200m    534.9042m   -198.9472m      7.9579u     -7.3385u  
    1.78300m    529.2043m   -197.7037m      7.9081u     -7.2691u  
    1.78400m    523.5044m   -196.4601m      7.8584u     -7.1996u  
    1.78500m    517.8046m   -195.2166m      7.8087u     -7.1302u  
    1.78600m    512.1047m   -193.9731m      7.7589u     -7.0608u  
    1.78700m    506.4049m   -192.7296m      7.7092u     -6.9913u  
    1.78800m    500.7050m   -191.4861m      7.6594u     -6.9219u  
    1.78900m    495.0051m   -190.2426m      7.6097u     -6.8525u  
    1.79000m    489.3053m   -188.9991m      7.5600u     -6.7830u  
    1.79100m    483.6054m   -187.7555m      7.5102u     -6.7136u  
    1.79200m    477.9056m   -186.5120m      7.4605u     -6.6442u  
    1.79300m    472.2057m   -185.2685m      7.4107u     -6.5747u  
    1.79400m    466.5058m   -184.0250m      7.3610u     -6.5053u  
    1.79500m    460.8060m   -182.7815m      7.3113u     -6.4359u  
    1.79600m    455.1061m   -181.5380m      7.2615u     -6.3664u  
    1.79700m    449.4062m   -180.2945m      7.2118u     -6.2970u  
    1.79800m    443.7064m   -179.0509m      7.1620u     -6.2276u  
    1.79900m    438.0065m   -177.8074m      7.1123u     -6.1581u  
    1.80000m    432.3067m   -176.5639m      7.0626u     -6.0887u  
    1.80100m    426.6068m   -175.3204m      7.0128u     -6.0193u  
    1.80200m    420.9069m   -174.0769m      6.9631u     -5.9498u  
    1.80300m    415.2071m   -172.8334m      6.9133u     -5.8804u  
    1.80400m    409.5072m   -171.5898m      6.8636u     -5.8110u  
    1.80500m    403.8074m   -170.3463m      6.8139u     -5.7415u  
    1.80600m    398.1075m   -169.1028m      6.7641u     -5.6721u  
    1.80700m    392.4076m   -167.8593m      6.7144u     -5.6027u  
    1.80800m    386.7078m   -166.6158m      6.6646u     -5.5332u  
    1.80900m    381.0079m   -165.3723m      6.6149u     -5.4638u  
    1.81000m    375.3081m   -164.1288m      6.5652u     -5.3944u  
    1.81100m    369.6082m   -162.8852m      6.5154u     -5.3249u  
    1.81200m    363.9083m   -161.6417m      6.4657u     -5.2555u  
    1.81300m    358.2085m   -160.3982m      6.4159u     -5.1861u  
    1.81400m    352.5086m   -159.1547m      6.3662u     -5.1166u  
    1.81500m    346.8087m   -157.9112m      6.3164u     -5.0472u  
    1.81600m    341.1089m   -156.6677m      6.2667u     -4.9778u  
    1.81700m    335.4090m   -155.4242m      6.2170u     -4.9083u  
    1.81800m    329.7092m   -154.1806m      6.1672u     -4.8389u  
    1.81900m    324.0093m   -152.9371m      6.1175u     -4.7695u  
    1.82000m    318.3094m   -151.6936m      6.0677u     -4.7000u  
    1.82100m    312.6096m   -150.4501m      6.0180u     -4.6306u  
    1.82200m    306.9097m   -149.2066m      5.9683u     -4.5612u  
    1.82300m    301.2099m   -147.9631m      5.9185u     -4.4917u  
    1.82400m    295.5100m   -146.7196m      5.8688u     -4.4223u  
    1.82500m    289.8101m   -145.4760m      5.8190u     -4.3529u  
    1.82600m    284.2138m   -144.2500m      5.7700u     -4.2846u  
    1.82700m    281.0646m   -143.4366m      5.7375u     -4.2450u  
    1.82800m    277.9153m   -142.6232m      5.7049u     -4.2054u  
    1.82900m    274.7661m   -141.8099m      5.6724u     -4.1658u  
    1.83000m    271.6169m   -140.9965m      5.6399u     -4.1261u  
    1.83100m    268.4676m   -140.1831m      5.6073u     -4.0865u  
    1.83200m    265.3184m   -139.3698m      5.5748u     -4.0469u  
    1.83300m    262.1692m   -138.5564m      5.5423u     -4.0073u  
    1.83400m    259.0199m   -137.7430m      5.5097u     -3.9676u  
    1.83500m    255.8707m   -136.9297m      5.4772u     -3.9280u  
    1.83600m    252.7215m   -136.1163m      5.4447u     -3.8884u  
    1.83700m    249.5722m   -135.3029m      5.4121u     -3.8488u  
    1.83800m    246.4230m   -134.4896m      5.3796u     -3.8091u  
    1.83900m    243.2738m   -133.6762m      5.3470u     -3.7695u  
    1.84000m    240.1245m   -132.8628m      5.3145u     -3.7299u  
    1.84100m    236.9753m   -132.0494m      5.2820u     -3.6902u  
    1.84200m    233.8261m   -131.2361m      5.2494u     -3.6506u  
    1.84300m    230.6768m   -130.4227m      5.2169u     -3.6110u  
    1.84400m    227.5276m   -129.6093m      5.1844u     -3.5714u  
    1.84500m    224.3784m   -128.7960m      5.1518u     -3.5317u  
    1.84600m    221.2291m   -127.9826m      5.1193u     -3.4921u  
    1.84700m    218.0799m   -127.1692m      5.0868u     -3.4525u  
    1.84800m    214.9307m   -126.3559m      5.0542u     -3.4129u  
    1.84900m    211.7814m   -125.5425m      5.0217u     -3.3732u  
    1.85000m    208.6322m   -124.7291m      4.9892u     -3.3336u  
    1.85100m    205.4830m   -123.9158m      4.9566u     -3.2940u  
    1.85200m    202.3337m   -123.1024m      4.9241u     -3.2544u  
    1.85300m    199.1845m   -122.2890m      4.8916u     -3.2147u  
    1.85400m    196.0353m   -121.4757m      4.8590u     -3.1751u  
    1.85500m    192.8860m   -120.6623m      4.8265u     -3.1355u  
    1.85600m    189.7368m   -119.8489m      4.7940u     -3.0959u  
    1.85700m    186.5876m   -119.0355m      4.7614u     -3.0562u  
    1.85800m    183.4383m   -118.2222m      4.7289u     -3.0166u  
    1.85900m    180.2891m   -117.4088m      4.6964u     -2.9770u  
    1.86000m    177.1399m   -116.5954m      4.6638u     -2.9374u  
    1.86100m    173.9906m   -115.7821m      4.6313u     -2.8977u  
    1.86200m    170.8414m   -114.9687m      4.5987u     -2.8581u  
    1.86300m    167.6922m   -114.1553m      4.5662u     -2.8185u  
    1.86400m    164.5429m   -113.3420m      4.5337u     -2.7788u  
    1.86500m    161.3937m   -112.5286m      4.5011u     -2.7392u  
    1.86600m    158.2445m   -111.7152m      4.4686u     -2.6996u  
    1.86700m    155.3937m   -110.9536m      4.4381u     -2.6635u  
    1.86800m    153.7606m   -110.4030m      4.4161u     -2.6416u  
    1.86900m    152.1274m   -109.8524m      4.3941u     -2.6198u  
    1.87000m    150.4943m   -109.3018m      4.3721u     -2.5980u  
    1.87100m    148.8612m   -108.7513m      4.3501u     -2.5761u  
    1.87200m    147.2280m   -108.2007m      4.3280u     -2.5543u  
    1.87300m    145.5949m   -107.6501m      4.3060u     -2.5324u  
    1.87400m    143.9618m   -107.0995m      4.2840u     -2.5106u  
    1.87500m    142.3286m   -106.5489m      4.2620u     -2.4888u  
    1.87600m    140.6955m   -105.9983m      4.2399u     -2.4669u  
    1.87700m    139.0624m   -105.4477m      4.2179u     -2.4451u  
    1.87800m    137.4292m   -104.8972m      4.1959u     -2.4233u  
    1.87900m    135.7961m   -104.3466m      4.1739u     -2.4014u  
    1.88000m    134.1629m   -103.7960m      4.1518u     -2.3796u  
    1.88100m    132.5298m   -103.2454m      4.1298u     -2.3578u  
    1.88200m    130.8967m   -102.6948m      4.1078u     -2.3359u  
    1.88300m    129.2635m   -102.1442m      4.0858u     -2.3141u  
    1.88400m    127.6304m   -101.5936m      4.0637u     -2.2922u  
    1.88500m    125.9973m   -101.0431m      4.0417u     -2.2704u  
    1.88600m    124.3641m   -100.4925m      4.0197u     -2.2486u  
    1.88700m    122.7310m    -99.9419m      3.9977u     -2.2267u  
    1.88800m    121.0978m    -99.3913m      3.9757u     -2.2049u  
    1.88900m    119.4647m    -98.8407m      3.9536u     -2.1831u  
    1.89000m    117.8316m    -98.2901m      3.9316u     -2.1612u  
    1.89100m    116.1984m    -97.7395m      3.9096u     -2.1394u  
    1.89200m    114.5653m    -97.1890m      3.8876u     -2.1175u  
    1.89300m    112.9322m    -96.6384m      3.8655u     -2.0957u  
    1.89400m    111.2990m    -96.0878m      3.8435u     -2.0739u  
    1.89500m    109.6659m    -95.5372m      3.8215u     -2.0520u  
    1.89600m    108.0327m    -94.9866m      3.7995u     -2.0302u  
    1.89700m    106.3996m    -94.4360m      3.7774u     -2.0084u  
    1.89800m    104.7665m    -93.8855m      3.7554u     -1.9865u  
    1.89900m    103.1333m    -93.3349m      3.7334u     -1.9647u  
    1.90000m    101.5002m    -92.7843m      3.7114u     -1.9428u  
    1.90100m     99.8671m    -92.2337m      3.6893u     -1.9210u  
    1.90200m     98.2339m    -91.6831m      3.6673u     -1.8992u  
    1.90300m     96.6008m    -91.1325m      3.6453u     -1.8773u  
    1.90400m     94.9677m    -90.5819m      3.6233u     -1.8555u  
    1.90500m     93.3345m    -90.0314m      3.6013u     -1.8337u  
    1.90600m     91.7014m    -89.4808m      3.5792u     -1.8118u  
    1.90700m     90.0682m    -88.9302m      3.5572u     -1.7900u  
    1.90800m     88.4351m    -88.3796m      3.5352u     -1.7681u  
    1.90900m     86.8020m    -87.8290m      3.5132u     -1.7463u  
    1.91000m     85.1688m    -87.2784m      3.4911u     -1.7245u  
    1.91100m     83.5357m    -86.7278m      3.4691u     -1.7026u  
    1.91200m     81.9026m    -86.1773m      3.4471u     -1.6808u  
    1.91300m     80.2694m    -85.6267m      3.4251u     -1.6590u  
    1.91400m     78.6363m    -85.0761m      3.4030u     -1.6371u  
    1.91500m     77.0031m    -84.5255m      3.3810u     -1.6153u  
    1.91600m     75.3700m    -83.9749m      3.3590u     -1.5934u  
    1.91700m     74.2377m    -83.5193m      3.3408u     -1.5776u  
    1.91800m     73.5381m    -83.1456m      3.3258u     -1.5668u  
    1.91900m     72.8384m    -82.7719m      3.3109u     -1.5561u  
    1.92000m     72.1388m    -82.3982m      3.2959u     -1.5454u  
    1.92100m     71.4391m    -82.0245m      3.2810u     -1.5346u  
    1.92200m     70.7395m    -81.6509m      3.2660u     -1.5239u  
    1.92300m     70.0399m    -81.2772m      3.2511u     -1.5132u  
    1.92400m     69.3402m    -80.9035m      3.2361u     -1.5024u  
    1.92500m     68.6406m    -80.5298m      3.2212u     -1.4917u  
    1.92600m     67.9409m    -80.1561m      3.2062u     -1.4810u  
    1.92700m     67.2413m    -79.7825m      3.1913u     -1.4702u  
    1.92800m     66.5416m    -79.4088m      3.1764u     -1.4595u  
    1.92900m     65.8420m    -79.0351m      3.1614u     -1.4488u  
    1.93000m     65.1423m    -78.6614m      3.1465u     -1.4380u  
    1.93100m     64.4427m    -78.2877m      3.1315u     -1.4273u  
    1.93200m     63.7430m    -77.9141m      3.1166u     -1.4166u  
    1.93300m     63.0434m    -77.5404m      3.1016u     -1.4058u  
    1.93400m     62.3438m    -77.1667m      3.0867u     -1.3951u  
    1.93500m     61.6441m    -76.7930m      3.0717u     -1.3844u  
    1.93600m     60.9445m    -76.4193m      3.0568u     -1.3736u  
    1.93700m     60.2448m    -76.0457m      3.0418u     -1.3629u  
    1.93800m     59.5452m    -75.6720m      3.0269u     -1.3522u  
    1.93900m     58.8455m    -75.2983m      3.0119u     -1.3414u  
    1.94000m     58.1459m    -74.9246m      2.9970u     -1.3307u  
    1.94100m     57.4462m    -74.5509m      2.9820u     -1.3200u  
    1.94200m     56.7466m    -74.1773m      2.9671u     -1.3092u  
    1.94300m     56.0470m    -73.8036m      2.9521u     -1.2985u  
    1.94400m     55.3473m    -73.4299m      2.9372u     -1.2878u  
    1.94500m     54.6477m    -73.0562m      2.9222u     -1.2770u  
    1.94600m     53.9480m    -72.6825m      2.9073u     -1.2663u  
    1.94700m     53.2484m    -72.3089m      2.8924u     -1.2556u  
    1.94800m     52.5487m    -71.9352m      2.8774u     -1.2448u  
    1.94900m     51.8491m    -71.5615m      2.8625u     -1.2341u  
    1.95000m     51.1494m    -71.1878m      2.8475u     -1.2234u  
    1.95100m     50.4498m    -70.8141m      2.8326u     -1.2126u  
    1.95200m     49.7502m    -70.4405m      2.8176u     -1.2019u  
    1.95300m     49.0505m    -70.0668m      2.8027u     -1.1912u  
    1.95400m     48.3509m    -69.6931m      2.7877u     -1.1804u  
    1.95500m     47.6512m    -69.3194m      2.7728u     -1.1697u  
    1.95600m     46.9516m    -68.9457m      2.7578u     -1.1590u  
    1.95700m     46.2519m    -68.5721m      2.7429u     -1.1482u  
    1.95800m     45.5523m    -68.1984m      2.7279u     -1.1375u  
    1.95900m     44.8526m    -67.8247m      2.7130u     -1.1268u  
    1.96000m     44.1530m    -67.4510m      2.6980u     -1.1160u  
    1.96100m     43.4533m    -67.0773m      2.6831u     -1.1053u  
    1.96200m     42.7537m    -66.7037m      2.6681u     -1.0946u  
    1.96300m     42.0541m    -66.3300m      2.6532u     -1.0838u  
    1.96400m     41.3544m    -65.9563m      2.6383u     -1.0731u  
    1.96500m     40.6548m    -65.5826m      2.6233u     -1.0624u  
    1.96600m     40.3295m    -65.2941m      2.6118u     -1.0562u  
    1.96700m     40.0490m    -65.0158m      2.6006u     -1.0506u  
    1.96800m     39.7684m    -64.7375m      2.5895u     -1.0451u  
    1.96900m     39.4879m    -64.4591m      2.5784u     -1.0395u  
    1.97000m     39.2073m    -64.1808m      2.5672u     -1.0339u  
    1.97100m     38.9267m    -63.9025m      2.5561u     -1.0283u  
    1.97200m     38.6462m    -63.6241m      2.5450u     -1.0227u  
    1.97300m     38.3656m    -63.3458m      2.5338u     -1.0171u  
    1.97400m     38.0851m    -63.0675m      2.5227u     -1.0115u  
    1.97500m     37.8045m    -62.7891m      2.5116u     -1.0059u  
    1.97600m     37.5239m    -62.5108m      2.5004u     -1.0003u  
    1.97700m     37.2434m    -62.2325m      2.4893u   -994.7582n  
    1.97800m     36.9628m    -61.9541m      2.4782u   -989.1692n  
    1.97900m     36.6822m    -61.6758m      2.4670u   -983.5803n  
    1.98000m     36.4017m    -61.3974m      2.4559u   -977.9913n  
    1.98100m     36.1211m    -61.1191m      2.4448u   -972.4024n  
    1.98200m     35.8406m    -60.8408m      2.4336u   -966.8134n  
    1.98300m     35.5600m    -60.5624m      2.4225u   -961.2244n  
    1.98400m     35.2794m    -60.2841m      2.4114u   -955.6355n  
    1.98500m     34.9989m    -60.0058m      2.4002u   -950.0465n  
    1.98600m     34.7183m    -59.7274m      2.3891u   -944.4575n  
    1.98700m     34.4378m    -59.4491m      2.3780u   -938.8686n  
    1.98800m     34.1572m    -59.1708m      2.3668u   -933.2796n  
    1.98900m     33.8766m    -58.8924m      2.3557u   -927.6907n  
    1.99000m     33.5961m    -58.6141m      2.3446u   -922.1017n  
    1.99100m     33.3155m    -58.3358m      2.3334u   -916.5127n  
    1.99200m     33.0349m    -58.0574m      2.3223u   -910.9238n  
    1.99300m     32.7544m    -57.7791m      2.3112u   -905.3348n  
    1.99400m     32.4738m    -57.5008m      2.3000u   -899.7458n  
    1.99500m     32.1933m    -57.2224m      2.2889u   -894.1569n  
    1.99600m     31.9127m    -56.9441m      2.2778u   -888.5679n  
    1.99700m     31.6321m    -56.6658m      2.2666u   -882.9790n  
    1.99800m     31.3516m    -56.3874m      2.2555u   -877.3900n  
    1.99900m     31.0710m    -56.1091m      2.2444u   -871.8010n  
    2.00000m     30.7905m    -55.8308m      2.2332u   -866.2121n  
y

          ***** job concluded
1****** HSPICE -- D-2010.03-SP1 32-BIT (May 26 2010) winnt ******               
 ******  
 nerve circuit

  ******  job statistics summary tnom=  25.000 temp=  25.000 *****

  ******  HSPICE Threads Information  ******

  Command Line Threads Count                  :     1
  Available CPU Count                         :     4
  Actual Model Evaluation(Load) Threads Count :     1
  Actual Solver Threads Count                 :     1


  ******  Circuit Statistics  ******
  # nodes       =      12 # elements   =      17
  # resistors   =       6 # capacitors =       4 # inductors   =       0
  # mutual_inds =       0 # vccs       =       2 # vcvs        =       0
  # cccs        =       0 # ccvs       =       0 # volt_srcs   =       5
  # curr_srcs   =       0 # diodes     =       0 # bjts        =       0
  # jfets       =       0 # mosfets    =       0 # U elements  =       0
  # T elements  =       0 # W elements =       0 # B elements  =       0
  # S elements  =       0 # P elements =       0 # va device   =       0


  ******  Runtime Statistics (seconds)  ******

  analysis           time    # points   tot. iter  conv.iter
  op point           0.01           1           4
  transient          0.07        2001         532         170 rev=        20
  readin             0.08
  errchk             0.02
  setup              0.02
  output             0.01


           total memory used          164  kbytes
           total cpu time            0.23 seconds
           total elapsed time        0.33 seconds
           job started at     16:42:55 12/27/2020
           job ended   at     16:42:56 12/27/2020


  lic: Release hspice token(s) 
